*
*  /home/marwan/ef/klayout_lvs/lvs/test_cases/mgmt_protect/mgmt_protect.spice : SPICE netlist translated from the VERILOG netlist : /home/marwan/ef/caravel/verilog/gl/mgmt_protect.v
*                                                                               on the 2021-12-22 17:56:37.361845
*
***************************************************************************************************************************************************************************************

.INCLUDE sky130_fd_sc_hd.spice 

.GLOBAL VDD VSS

.SUBCKT MGMT_PROTECT CARAVEL_CLK CARAVEL_CLK2 CARAVEL_RSTN MPRJ_ACK_I_CORE MPRJ_ACK_I_USER MPRJ_CYC_O_CORE MPRJ_CYC_O_USER MPRJ_IENA_WB MPRJ_STB_O_CORE MPRJ_STB_O_USER MPRJ_WE_O_CORE MPRJ_WE_O_USER USER1_VCC_POWERGOOD USER1_VDD_POWERGOOD USER2_VCC_POWERGOOD USER2_VDD_POWERGOOD USER_CLOCK USER_CLOCK2 USER_RESET VCCD VCCD1 VCCD2 VDDA1 VDDA2 VSSA1 VSSA2 VSSD VSSD1 VSSD2 LA_DATA_IN_CORE[0] LA_DATA_IN_CORE[1] LA_DATA_IN_CORE[2] LA_DATA_IN_CORE[3] LA_DATA_IN_CORE[4] LA_DATA_IN_CORE[5] LA_DATA_IN_CORE[6] LA_DATA_IN_CORE[7] LA_DATA_IN_CORE[8] LA_DATA_IN_CORE[9] LA_DATA_IN_CORE[10] LA_DATA_IN_CORE[11] LA_DATA_IN_CORE[12] LA_DATA_IN_CORE[13] LA_DATA_IN_CORE[14] LA_DATA_IN_CORE[15] LA_DATA_IN_CORE[16] LA_DATA_IN_CORE[17] LA_DATA_IN_CORE[18] LA_DATA_IN_CORE[19] LA_DATA_IN_CORE[20] LA_DATA_IN_CORE[21] LA_DATA_IN_CORE[22] LA_DATA_IN_CORE[23] LA_DATA_IN_CORE[24] LA_DATA_IN_CORE[25] LA_DATA_IN_CORE[26] LA_DATA_IN_CORE[27] LA_DATA_IN_CORE[28] LA_DATA_IN_CORE[29] LA_DATA_IN_CORE[30] LA_DATA_IN_CORE[31] LA_DATA_IN_CORE[32] LA_DATA_IN_CORE[33] LA_DATA_IN_CORE[34] LA_DATA_IN_CORE[35] LA_DATA_IN_CORE[36] LA_DATA_IN_CORE[37] LA_DATA_IN_CORE[38] LA_DATA_IN_CORE[39] LA_DATA_IN_CORE[40] LA_DATA_IN_CORE[41] LA_DATA_IN_CORE[42] LA_DATA_IN_CORE[43] LA_DATA_IN_CORE[44] LA_DATA_IN_CORE[45] LA_DATA_IN_CORE[46] LA_DATA_IN_CORE[47] LA_DATA_IN_CORE[48] LA_DATA_IN_CORE[49] LA_DATA_IN_CORE[50] LA_DATA_IN_CORE[51] LA_DATA_IN_CORE[52] LA_DATA_IN_CORE[53] LA_DATA_IN_CORE[54] LA_DATA_IN_CORE[55] LA_DATA_IN_CORE[56] LA_DATA_IN_CORE[57] LA_DATA_IN_CORE[58] LA_DATA_IN_CORE[59] LA_DATA_IN_CORE[60] LA_DATA_IN_CORE[61] LA_DATA_IN_CORE[62] LA_DATA_IN_CORE[63] LA_DATA_IN_CORE[64] LA_DATA_IN_CORE[65] LA_DATA_IN_CORE[66] LA_DATA_IN_CORE[67] LA_DATA_IN_CORE[68] LA_DATA_IN_CORE[69] LA_DATA_IN_CORE[70] LA_DATA_IN_CORE[71] LA_DATA_IN_CORE[72] LA_DATA_IN_CORE[73] LA_DATA_IN_CORE[74] LA_DATA_IN_CORE[75] LA_DATA_IN_CORE[76] LA_DATA_IN_CORE[77] LA_DATA_IN_CORE[78] LA_DATA_IN_CORE[79] LA_DATA_IN_CORE[80] LA_DATA_IN_CORE[81] LA_DATA_IN_CORE[82] LA_DATA_IN_CORE[83] LA_DATA_IN_CORE[84] LA_DATA_IN_CORE[85] LA_DATA_IN_CORE[86] LA_DATA_IN_CORE[87] LA_DATA_IN_CORE[88] LA_DATA_IN_CORE[89] LA_DATA_IN_CORE[90] LA_DATA_IN_CORE[91] LA_DATA_IN_CORE[92] LA_DATA_IN_CORE[93] LA_DATA_IN_CORE[94] LA_DATA_IN_CORE[95] LA_DATA_IN_CORE[96] LA_DATA_IN_CORE[97] LA_DATA_IN_CORE[98] LA_DATA_IN_CORE[99] LA_DATA_IN_CORE[100] LA_DATA_IN_CORE[101] LA_DATA_IN_CORE[102] LA_DATA_IN_CORE[103] LA_DATA_IN_CORE[104] LA_DATA_IN_CORE[105] LA_DATA_IN_CORE[106] LA_DATA_IN_CORE[107] LA_DATA_IN_CORE[108] LA_DATA_IN_CORE[109] LA_DATA_IN_CORE[110] LA_DATA_IN_CORE[111] LA_DATA_IN_CORE[112] LA_DATA_IN_CORE[113] LA_DATA_IN_CORE[114] LA_DATA_IN_CORE[115] LA_DATA_IN_CORE[116] LA_DATA_IN_CORE[117] LA_DATA_IN_CORE[118] LA_DATA_IN_CORE[119] LA_DATA_IN_CORE[120] LA_DATA_IN_CORE[121] LA_DATA_IN_CORE[122] LA_DATA_IN_CORE[123] LA_DATA_IN_CORE[124] LA_DATA_IN_CORE[125] LA_DATA_IN_CORE[126] LA_DATA_IN_CORE[127] LA_DATA_IN_MPRJ[0] LA_DATA_IN_MPRJ[1] LA_DATA_IN_MPRJ[2] LA_DATA_IN_MPRJ[3] LA_DATA_IN_MPRJ[4] LA_DATA_IN_MPRJ[5] LA_DATA_IN_MPRJ[6] LA_DATA_IN_MPRJ[7] LA_DATA_IN_MPRJ[8] LA_DATA_IN_MPRJ[9] LA_DATA_IN_MPRJ[10] LA_DATA_IN_MPRJ[11] LA_DATA_IN_MPRJ[12] LA_DATA_IN_MPRJ[13] LA_DATA_IN_MPRJ[14] LA_DATA_IN_MPRJ[15] LA_DATA_IN_MPRJ[16] LA_DATA_IN_MPRJ[17] LA_DATA_IN_MPRJ[18] LA_DATA_IN_MPRJ[19] LA_DATA_IN_MPRJ[20] LA_DATA_IN_MPRJ[21] LA_DATA_IN_MPRJ[22] LA_DATA_IN_MPRJ[23] LA_DATA_IN_MPRJ[24] LA_DATA_IN_MPRJ[25] LA_DATA_IN_MPRJ[26] LA_DATA_IN_MPRJ[27] LA_DATA_IN_MPRJ[28] LA_DATA_IN_MPRJ[29] LA_DATA_IN_MPRJ[30] LA_DATA_IN_MPRJ[31] LA_DATA_IN_MPRJ[32] LA_DATA_IN_MPRJ[33] LA_DATA_IN_MPRJ[34] LA_DATA_IN_MPRJ[35] LA_DATA_IN_MPRJ[36] LA_DATA_IN_MPRJ[37] LA_DATA_IN_MPRJ[38] LA_DATA_IN_MPRJ[39] LA_DATA_IN_MPRJ[40] LA_DATA_IN_MPRJ[41] LA_DATA_IN_MPRJ[42] LA_DATA_IN_MPRJ[43] LA_DATA_IN_MPRJ[44] LA_DATA_IN_MPRJ[45] LA_DATA_IN_MPRJ[46] LA_DATA_IN_MPRJ[47] LA_DATA_IN_MPRJ[48] LA_DATA_IN_MPRJ[49] LA_DATA_IN_MPRJ[50] LA_DATA_IN_MPRJ[51] LA_DATA_IN_MPRJ[52] LA_DATA_IN_MPRJ[53] LA_DATA_IN_MPRJ[54] LA_DATA_IN_MPRJ[55] LA_DATA_IN_MPRJ[56] LA_DATA_IN_MPRJ[57] LA_DATA_IN_MPRJ[58] LA_DATA_IN_MPRJ[59] LA_DATA_IN_MPRJ[60] LA_DATA_IN_MPRJ[61] LA_DATA_IN_MPRJ[62] LA_DATA_IN_MPRJ[63] LA_DATA_IN_MPRJ[64] LA_DATA_IN_MPRJ[65] LA_DATA_IN_MPRJ[66] LA_DATA_IN_MPRJ[67] LA_DATA_IN_MPRJ[68] LA_DATA_IN_MPRJ[69] LA_DATA_IN_MPRJ[70] LA_DATA_IN_MPRJ[71] LA_DATA_IN_MPRJ[72] LA_DATA_IN_MPRJ[73] LA_DATA_IN_MPRJ[74] LA_DATA_IN_MPRJ[75] LA_DATA_IN_MPRJ[76] LA_DATA_IN_MPRJ[77] LA_DATA_IN_MPRJ[78] LA_DATA_IN_MPRJ[79] LA_DATA_IN_MPRJ[80] LA_DATA_IN_MPRJ[81] LA_DATA_IN_MPRJ[82] LA_DATA_IN_MPRJ[83] LA_DATA_IN_MPRJ[84] LA_DATA_IN_MPRJ[85] LA_DATA_IN_MPRJ[86] LA_DATA_IN_MPRJ[87] LA_DATA_IN_MPRJ[88] LA_DATA_IN_MPRJ[89] LA_DATA_IN_MPRJ[90] LA_DATA_IN_MPRJ[91] LA_DATA_IN_MPRJ[92] LA_DATA_IN_MPRJ[93] LA_DATA_IN_MPRJ[94] LA_DATA_IN_MPRJ[95] LA_DATA_IN_MPRJ[96] LA_DATA_IN_MPRJ[97] LA_DATA_IN_MPRJ[98] LA_DATA_IN_MPRJ[99] LA_DATA_IN_MPRJ[100] LA_DATA_IN_MPRJ[101] LA_DATA_IN_MPRJ[102] LA_DATA_IN_MPRJ[103] LA_DATA_IN_MPRJ[104] LA_DATA_IN_MPRJ[105] LA_DATA_IN_MPRJ[106] LA_DATA_IN_MPRJ[107] LA_DATA_IN_MPRJ[108] LA_DATA_IN_MPRJ[109] LA_DATA_IN_MPRJ[110] LA_DATA_IN_MPRJ[111] LA_DATA_IN_MPRJ[112] LA_DATA_IN_MPRJ[113] LA_DATA_IN_MPRJ[114] LA_DATA_IN_MPRJ[115] LA_DATA_IN_MPRJ[116] LA_DATA_IN_MPRJ[117] LA_DATA_IN_MPRJ[118] LA_DATA_IN_MPRJ[119] LA_DATA_IN_MPRJ[120] LA_DATA_IN_MPRJ[121] LA_DATA_IN_MPRJ[122] LA_DATA_IN_MPRJ[123] LA_DATA_IN_MPRJ[124] LA_DATA_IN_MPRJ[125] LA_DATA_IN_MPRJ[126] LA_DATA_IN_MPRJ[127] LA_DATA_OUT_CORE[0] LA_DATA_OUT_CORE[1] LA_DATA_OUT_CORE[2] LA_DATA_OUT_CORE[3] LA_DATA_OUT_CORE[4] LA_DATA_OUT_CORE[5] LA_DATA_OUT_CORE[6] LA_DATA_OUT_CORE[7] LA_DATA_OUT_CORE[8] LA_DATA_OUT_CORE[9] LA_DATA_OUT_CORE[10] LA_DATA_OUT_CORE[11] LA_DATA_OUT_CORE[12] LA_DATA_OUT_CORE[13] LA_DATA_OUT_CORE[14] LA_DATA_OUT_CORE[15] LA_DATA_OUT_CORE[16] LA_DATA_OUT_CORE[17] LA_DATA_OUT_CORE[18] LA_DATA_OUT_CORE[19] LA_DATA_OUT_CORE[20] LA_DATA_OUT_CORE[21] LA_DATA_OUT_CORE[22] LA_DATA_OUT_CORE[23] LA_DATA_OUT_CORE[24] LA_DATA_OUT_CORE[25] LA_DATA_OUT_CORE[26] LA_DATA_OUT_CORE[27] LA_DATA_OUT_CORE[28] LA_DATA_OUT_CORE[29] LA_DATA_OUT_CORE[30] LA_DATA_OUT_CORE[31] LA_DATA_OUT_CORE[32] LA_DATA_OUT_CORE[33] LA_DATA_OUT_CORE[34] LA_DATA_OUT_CORE[35] LA_DATA_OUT_CORE[36] LA_DATA_OUT_CORE[37] LA_DATA_OUT_CORE[38] LA_DATA_OUT_CORE[39] LA_DATA_OUT_CORE[40] LA_DATA_OUT_CORE[41] LA_DATA_OUT_CORE[42] LA_DATA_OUT_CORE[43] LA_DATA_OUT_CORE[44] LA_DATA_OUT_CORE[45] LA_DATA_OUT_CORE[46] LA_DATA_OUT_CORE[47] LA_DATA_OUT_CORE[48] LA_DATA_OUT_CORE[49] LA_DATA_OUT_CORE[50] LA_DATA_OUT_CORE[51] LA_DATA_OUT_CORE[52] LA_DATA_OUT_CORE[53] LA_DATA_OUT_CORE[54] LA_DATA_OUT_CORE[55] LA_DATA_OUT_CORE[56] LA_DATA_OUT_CORE[57] LA_DATA_OUT_CORE[58] LA_DATA_OUT_CORE[59] LA_DATA_OUT_CORE[60] LA_DATA_OUT_CORE[61] LA_DATA_OUT_CORE[62] LA_DATA_OUT_CORE[63] LA_DATA_OUT_CORE[64] LA_DATA_OUT_CORE[65] LA_DATA_OUT_CORE[66] LA_DATA_OUT_CORE[67] LA_DATA_OUT_CORE[68] LA_DATA_OUT_CORE[69] LA_DATA_OUT_CORE[70] LA_DATA_OUT_CORE[71] LA_DATA_OUT_CORE[72] LA_DATA_OUT_CORE[73] LA_DATA_OUT_CORE[74] LA_DATA_OUT_CORE[75] LA_DATA_OUT_CORE[76] LA_DATA_OUT_CORE[77] LA_DATA_OUT_CORE[78] LA_DATA_OUT_CORE[79] LA_DATA_OUT_CORE[80] LA_DATA_OUT_CORE[81] LA_DATA_OUT_CORE[82] LA_DATA_OUT_CORE[83] LA_DATA_OUT_CORE[84] LA_DATA_OUT_CORE[85] LA_DATA_OUT_CORE[86] LA_DATA_OUT_CORE[87] LA_DATA_OUT_CORE[88] LA_DATA_OUT_CORE[89] LA_DATA_OUT_CORE[90] LA_DATA_OUT_CORE[91] LA_DATA_OUT_CORE[92] LA_DATA_OUT_CORE[93] LA_DATA_OUT_CORE[94] LA_DATA_OUT_CORE[95] LA_DATA_OUT_CORE[96] LA_DATA_OUT_CORE[97] LA_DATA_OUT_CORE[98] LA_DATA_OUT_CORE[99] LA_DATA_OUT_CORE[100] LA_DATA_OUT_CORE[101] LA_DATA_OUT_CORE[102] LA_DATA_OUT_CORE[103] LA_DATA_OUT_CORE[104] LA_DATA_OUT_CORE[105] LA_DATA_OUT_CORE[106] LA_DATA_OUT_CORE[107] LA_DATA_OUT_CORE[108] LA_DATA_OUT_CORE[109] LA_DATA_OUT_CORE[110] LA_DATA_OUT_CORE[111] LA_DATA_OUT_CORE[112] LA_DATA_OUT_CORE[113] LA_DATA_OUT_CORE[114] LA_DATA_OUT_CORE[115] LA_DATA_OUT_CORE[116] LA_DATA_OUT_CORE[117] LA_DATA_OUT_CORE[118] LA_DATA_OUT_CORE[119] LA_DATA_OUT_CORE[120] LA_DATA_OUT_CORE[121] LA_DATA_OUT_CORE[122] LA_DATA_OUT_CORE[123] LA_DATA_OUT_CORE[124] LA_DATA_OUT_CORE[125] LA_DATA_OUT_CORE[126] LA_DATA_OUT_CORE[127] LA_DATA_OUT_MPRJ[0] LA_DATA_OUT_MPRJ[1] LA_DATA_OUT_MPRJ[2] LA_DATA_OUT_MPRJ[3] LA_DATA_OUT_MPRJ[4] LA_DATA_OUT_MPRJ[5] LA_DATA_OUT_MPRJ[6] LA_DATA_OUT_MPRJ[7] LA_DATA_OUT_MPRJ[8] LA_DATA_OUT_MPRJ[9] LA_DATA_OUT_MPRJ[10] LA_DATA_OUT_MPRJ[11] LA_DATA_OUT_MPRJ[12] LA_DATA_OUT_MPRJ[13] LA_DATA_OUT_MPRJ[14] LA_DATA_OUT_MPRJ[15] LA_DATA_OUT_MPRJ[16] LA_DATA_OUT_MPRJ[17] LA_DATA_OUT_MPRJ[18] LA_DATA_OUT_MPRJ[19] LA_DATA_OUT_MPRJ[20] LA_DATA_OUT_MPRJ[21] LA_DATA_OUT_MPRJ[22] LA_DATA_OUT_MPRJ[23] LA_DATA_OUT_MPRJ[24] LA_DATA_OUT_MPRJ[25] LA_DATA_OUT_MPRJ[26] LA_DATA_OUT_MPRJ[27] LA_DATA_OUT_MPRJ[28] LA_DATA_OUT_MPRJ[29] LA_DATA_OUT_MPRJ[30] LA_DATA_OUT_MPRJ[31] LA_DATA_OUT_MPRJ[32] LA_DATA_OUT_MPRJ[33] LA_DATA_OUT_MPRJ[34] LA_DATA_OUT_MPRJ[35] LA_DATA_OUT_MPRJ[36] LA_DATA_OUT_MPRJ[37] LA_DATA_OUT_MPRJ[38] LA_DATA_OUT_MPRJ[39] LA_DATA_OUT_MPRJ[40] LA_DATA_OUT_MPRJ[41] LA_DATA_OUT_MPRJ[42] LA_DATA_OUT_MPRJ[43] LA_DATA_OUT_MPRJ[44] LA_DATA_OUT_MPRJ[45] LA_DATA_OUT_MPRJ[46] LA_DATA_OUT_MPRJ[47] LA_DATA_OUT_MPRJ[48] LA_DATA_OUT_MPRJ[49] LA_DATA_OUT_MPRJ[50] LA_DATA_OUT_MPRJ[51] LA_DATA_OUT_MPRJ[52] LA_DATA_OUT_MPRJ[53] LA_DATA_OUT_MPRJ[54] LA_DATA_OUT_MPRJ[55] LA_DATA_OUT_MPRJ[56] LA_DATA_OUT_MPRJ[57] LA_DATA_OUT_MPRJ[58] LA_DATA_OUT_MPRJ[59] LA_DATA_OUT_MPRJ[60] LA_DATA_OUT_MPRJ[61] LA_DATA_OUT_MPRJ[62] LA_DATA_OUT_MPRJ[63] LA_DATA_OUT_MPRJ[64] LA_DATA_OUT_MPRJ[65] LA_DATA_OUT_MPRJ[66] LA_DATA_OUT_MPRJ[67] LA_DATA_OUT_MPRJ[68] LA_DATA_OUT_MPRJ[69] LA_DATA_OUT_MPRJ[70] LA_DATA_OUT_MPRJ[71] LA_DATA_OUT_MPRJ[72] LA_DATA_OUT_MPRJ[73] LA_DATA_OUT_MPRJ[74] LA_DATA_OUT_MPRJ[75] LA_DATA_OUT_MPRJ[76] LA_DATA_OUT_MPRJ[77] LA_DATA_OUT_MPRJ[78] LA_DATA_OUT_MPRJ[79] LA_DATA_OUT_MPRJ[80] LA_DATA_OUT_MPRJ[81] LA_DATA_OUT_MPRJ[82] LA_DATA_OUT_MPRJ[83] LA_DATA_OUT_MPRJ[84] LA_DATA_OUT_MPRJ[85] LA_DATA_OUT_MPRJ[86] LA_DATA_OUT_MPRJ[87] LA_DATA_OUT_MPRJ[88] LA_DATA_OUT_MPRJ[89] LA_DATA_OUT_MPRJ[90] LA_DATA_OUT_MPRJ[91] LA_DATA_OUT_MPRJ[92] LA_DATA_OUT_MPRJ[93] LA_DATA_OUT_MPRJ[94] LA_DATA_OUT_MPRJ[95] LA_DATA_OUT_MPRJ[96] LA_DATA_OUT_MPRJ[97] LA_DATA_OUT_MPRJ[98] LA_DATA_OUT_MPRJ[99] LA_DATA_OUT_MPRJ[100] LA_DATA_OUT_MPRJ[101] LA_DATA_OUT_MPRJ[102] LA_DATA_OUT_MPRJ[103] LA_DATA_OUT_MPRJ[104] LA_DATA_OUT_MPRJ[105] LA_DATA_OUT_MPRJ[106] LA_DATA_OUT_MPRJ[107] LA_DATA_OUT_MPRJ[108] LA_DATA_OUT_MPRJ[109] LA_DATA_OUT_MPRJ[110] LA_DATA_OUT_MPRJ[111] LA_DATA_OUT_MPRJ[112] LA_DATA_OUT_MPRJ[113] LA_DATA_OUT_MPRJ[114] LA_DATA_OUT_MPRJ[115] LA_DATA_OUT_MPRJ[116] LA_DATA_OUT_MPRJ[117] LA_DATA_OUT_MPRJ[118] LA_DATA_OUT_MPRJ[119] LA_DATA_OUT_MPRJ[120] LA_DATA_OUT_MPRJ[121] LA_DATA_OUT_MPRJ[122] LA_DATA_OUT_MPRJ[123] LA_DATA_OUT_MPRJ[124] LA_DATA_OUT_MPRJ[125] LA_DATA_OUT_MPRJ[126] LA_DATA_OUT_MPRJ[127] LA_IENA_MPRJ[0] LA_IENA_MPRJ[1] LA_IENA_MPRJ[2] LA_IENA_MPRJ[3] LA_IENA_MPRJ[4] LA_IENA_MPRJ[5] LA_IENA_MPRJ[6] LA_IENA_MPRJ[7] LA_IENA_MPRJ[8] LA_IENA_MPRJ[9] LA_IENA_MPRJ[10] LA_IENA_MPRJ[11] LA_IENA_MPRJ[12] LA_IENA_MPRJ[13] LA_IENA_MPRJ[14] LA_IENA_MPRJ[15] LA_IENA_MPRJ[16] LA_IENA_MPRJ[17] LA_IENA_MPRJ[18] LA_IENA_MPRJ[19] LA_IENA_MPRJ[20] LA_IENA_MPRJ[21] LA_IENA_MPRJ[22] LA_IENA_MPRJ[23] LA_IENA_MPRJ[24] LA_IENA_MPRJ[25] LA_IENA_MPRJ[26] LA_IENA_MPRJ[27] LA_IENA_MPRJ[28] LA_IENA_MPRJ[29] LA_IENA_MPRJ[30] LA_IENA_MPRJ[31] LA_IENA_MPRJ[32] LA_IENA_MPRJ[33] LA_IENA_MPRJ[34] LA_IENA_MPRJ[35] LA_IENA_MPRJ[36] LA_IENA_MPRJ[37] LA_IENA_MPRJ[38] LA_IENA_MPRJ[39] LA_IENA_MPRJ[40] LA_IENA_MPRJ[41] LA_IENA_MPRJ[42] LA_IENA_MPRJ[43] LA_IENA_MPRJ[44] LA_IENA_MPRJ[45] LA_IENA_MPRJ[46] LA_IENA_MPRJ[47] LA_IENA_MPRJ[48] LA_IENA_MPRJ[49] LA_IENA_MPRJ[50] LA_IENA_MPRJ[51] LA_IENA_MPRJ[52] LA_IENA_MPRJ[53] LA_IENA_MPRJ[54] LA_IENA_MPRJ[55] LA_IENA_MPRJ[56] LA_IENA_MPRJ[57] LA_IENA_MPRJ[58] LA_IENA_MPRJ[59] LA_IENA_MPRJ[60] LA_IENA_MPRJ[61] LA_IENA_MPRJ[62] LA_IENA_MPRJ[63] LA_IENA_MPRJ[64] LA_IENA_MPRJ[65] LA_IENA_MPRJ[66] LA_IENA_MPRJ[67] LA_IENA_MPRJ[68] LA_IENA_MPRJ[69] LA_IENA_MPRJ[70] LA_IENA_MPRJ[71] LA_IENA_MPRJ[72] LA_IENA_MPRJ[73] LA_IENA_MPRJ[74] LA_IENA_MPRJ[75] LA_IENA_MPRJ[76] LA_IENA_MPRJ[77] LA_IENA_MPRJ[78] LA_IENA_MPRJ[79] LA_IENA_MPRJ[80] LA_IENA_MPRJ[81] LA_IENA_MPRJ[82] LA_IENA_MPRJ[83] LA_IENA_MPRJ[84] LA_IENA_MPRJ[85] LA_IENA_MPRJ[86] LA_IENA_MPRJ[87] LA_IENA_MPRJ[88] LA_IENA_MPRJ[89] LA_IENA_MPRJ[90] LA_IENA_MPRJ[91] LA_IENA_MPRJ[92] LA_IENA_MPRJ[93] LA_IENA_MPRJ[94] LA_IENA_MPRJ[95] LA_IENA_MPRJ[96] LA_IENA_MPRJ[97] LA_IENA_MPRJ[98] LA_IENA_MPRJ[99] LA_IENA_MPRJ[100] LA_IENA_MPRJ[101] LA_IENA_MPRJ[102] LA_IENA_MPRJ[103] LA_IENA_MPRJ[104] LA_IENA_MPRJ[105] LA_IENA_MPRJ[106] LA_IENA_MPRJ[107] LA_IENA_MPRJ[108] LA_IENA_MPRJ[109] LA_IENA_MPRJ[110] LA_IENA_MPRJ[111] LA_IENA_MPRJ[112] LA_IENA_MPRJ[113] LA_IENA_MPRJ[114] LA_IENA_MPRJ[115] LA_IENA_MPRJ[116] LA_IENA_MPRJ[117] LA_IENA_MPRJ[118] LA_IENA_MPRJ[119] LA_IENA_MPRJ[120] LA_IENA_MPRJ[121] LA_IENA_MPRJ[122] LA_IENA_MPRJ[123] LA_IENA_MPRJ[124] LA_IENA_MPRJ[125] LA_IENA_MPRJ[126] LA_IENA_MPRJ[127] LA_OENB_CORE[0] LA_OENB_CORE[1] LA_OENB_CORE[2] LA_OENB_CORE[3] LA_OENB_CORE[4] LA_OENB_CORE[5] LA_OENB_CORE[6] LA_OENB_CORE[7] LA_OENB_CORE[8] LA_OENB_CORE[9] LA_OENB_CORE[10] LA_OENB_CORE[11] LA_OENB_CORE[12] LA_OENB_CORE[13] LA_OENB_CORE[14] LA_OENB_CORE[15] LA_OENB_CORE[16] LA_OENB_CORE[17] LA_OENB_CORE[18] LA_OENB_CORE[19] LA_OENB_CORE[20] LA_OENB_CORE[21] LA_OENB_CORE[22] LA_OENB_CORE[23] LA_OENB_CORE[24] LA_OENB_CORE[25] LA_OENB_CORE[26] LA_OENB_CORE[27] LA_OENB_CORE[28] LA_OENB_CORE[29] LA_OENB_CORE[30] LA_OENB_CORE[31] LA_OENB_CORE[32] LA_OENB_CORE[33] LA_OENB_CORE[34] LA_OENB_CORE[35] LA_OENB_CORE[36] LA_OENB_CORE[37] LA_OENB_CORE[38] LA_OENB_CORE[39] LA_OENB_CORE[40] LA_OENB_CORE[41] LA_OENB_CORE[42] LA_OENB_CORE[43] LA_OENB_CORE[44] LA_OENB_CORE[45] LA_OENB_CORE[46] LA_OENB_CORE[47] LA_OENB_CORE[48] LA_OENB_CORE[49] LA_OENB_CORE[50] LA_OENB_CORE[51] LA_OENB_CORE[52] LA_OENB_CORE[53] LA_OENB_CORE[54] LA_OENB_CORE[55] LA_OENB_CORE[56] LA_OENB_CORE[57] LA_OENB_CORE[58] LA_OENB_CORE[59] LA_OENB_CORE[60] LA_OENB_CORE[61] LA_OENB_CORE[62] LA_OENB_CORE[63] LA_OENB_CORE[64] LA_OENB_CORE[65] LA_OENB_CORE[66] LA_OENB_CORE[67] LA_OENB_CORE[68] LA_OENB_CORE[69] LA_OENB_CORE[70] LA_OENB_CORE[71] LA_OENB_CORE[72] LA_OENB_CORE[73] LA_OENB_CORE[74] LA_OENB_CORE[75] LA_OENB_CORE[76] LA_OENB_CORE[77] LA_OENB_CORE[78] LA_OENB_CORE[79] LA_OENB_CORE[80] LA_OENB_CORE[81] LA_OENB_CORE[82] LA_OENB_CORE[83] LA_OENB_CORE[84] LA_OENB_CORE[85] LA_OENB_CORE[86] LA_OENB_CORE[87] LA_OENB_CORE[88] LA_OENB_CORE[89] LA_OENB_CORE[90] LA_OENB_CORE[91] LA_OENB_CORE[92] LA_OENB_CORE[93] LA_OENB_CORE[94] LA_OENB_CORE[95] LA_OENB_CORE[96] LA_OENB_CORE[97] LA_OENB_CORE[98] LA_OENB_CORE[99] LA_OENB_CORE[100] LA_OENB_CORE[101] LA_OENB_CORE[102] LA_OENB_CORE[103] LA_OENB_CORE[104] LA_OENB_CORE[105] LA_OENB_CORE[106] LA_OENB_CORE[107] LA_OENB_CORE[108] LA_OENB_CORE[109] LA_OENB_CORE[110] LA_OENB_CORE[111] LA_OENB_CORE[112] LA_OENB_CORE[113] LA_OENB_CORE[114] LA_OENB_CORE[115] LA_OENB_CORE[116] LA_OENB_CORE[117] LA_OENB_CORE[118] LA_OENB_CORE[119] LA_OENB_CORE[120] LA_OENB_CORE[121] LA_OENB_CORE[122] LA_OENB_CORE[123] LA_OENB_CORE[124] LA_OENB_CORE[125] LA_OENB_CORE[126] LA_OENB_CORE[127] LA_OENB_MPRJ[0] LA_OENB_MPRJ[1] LA_OENB_MPRJ[2] LA_OENB_MPRJ[3] LA_OENB_MPRJ[4] LA_OENB_MPRJ[5] LA_OENB_MPRJ[6] LA_OENB_MPRJ[7] LA_OENB_MPRJ[8] LA_OENB_MPRJ[9] LA_OENB_MPRJ[10] LA_OENB_MPRJ[11] LA_OENB_MPRJ[12] LA_OENB_MPRJ[13] LA_OENB_MPRJ[14] LA_OENB_MPRJ[15] LA_OENB_MPRJ[16] LA_OENB_MPRJ[17] LA_OENB_MPRJ[18] LA_OENB_MPRJ[19] LA_OENB_MPRJ[20] LA_OENB_MPRJ[21] LA_OENB_MPRJ[22] LA_OENB_MPRJ[23] LA_OENB_MPRJ[24] LA_OENB_MPRJ[25] LA_OENB_MPRJ[26] LA_OENB_MPRJ[27] LA_OENB_MPRJ[28] LA_OENB_MPRJ[29] LA_OENB_MPRJ[30] LA_OENB_MPRJ[31] LA_OENB_MPRJ[32] LA_OENB_MPRJ[33] LA_OENB_MPRJ[34] LA_OENB_MPRJ[35] LA_OENB_MPRJ[36] LA_OENB_MPRJ[37] LA_OENB_MPRJ[38] LA_OENB_MPRJ[39] LA_OENB_MPRJ[40] LA_OENB_MPRJ[41] LA_OENB_MPRJ[42] LA_OENB_MPRJ[43] LA_OENB_MPRJ[44] LA_OENB_MPRJ[45] LA_OENB_MPRJ[46] LA_OENB_MPRJ[47] LA_OENB_MPRJ[48] LA_OENB_MPRJ[49] LA_OENB_MPRJ[50] LA_OENB_MPRJ[51] LA_OENB_MPRJ[52] LA_OENB_MPRJ[53] LA_OENB_MPRJ[54] LA_OENB_MPRJ[55] LA_OENB_MPRJ[56] LA_OENB_MPRJ[57] LA_OENB_MPRJ[58] LA_OENB_MPRJ[59] LA_OENB_MPRJ[60] LA_OENB_MPRJ[61] LA_OENB_MPRJ[62] LA_OENB_MPRJ[63] LA_OENB_MPRJ[64] LA_OENB_MPRJ[65] LA_OENB_MPRJ[66] LA_OENB_MPRJ[67] LA_OENB_MPRJ[68] LA_OENB_MPRJ[69] LA_OENB_MPRJ[70] LA_OENB_MPRJ[71] LA_OENB_MPRJ[72] LA_OENB_MPRJ[73] LA_OENB_MPRJ[74] LA_OENB_MPRJ[75] LA_OENB_MPRJ[76] LA_OENB_MPRJ[77] LA_OENB_MPRJ[78] LA_OENB_MPRJ[79] LA_OENB_MPRJ[80] LA_OENB_MPRJ[81] LA_OENB_MPRJ[82] LA_OENB_MPRJ[83] LA_OENB_MPRJ[84] LA_OENB_MPRJ[85] LA_OENB_MPRJ[86] LA_OENB_MPRJ[87] LA_OENB_MPRJ[88] LA_OENB_MPRJ[89] LA_OENB_MPRJ[90] LA_OENB_MPRJ[91] LA_OENB_MPRJ[92] LA_OENB_MPRJ[93] LA_OENB_MPRJ[94] LA_OENB_MPRJ[95] LA_OENB_MPRJ[96] LA_OENB_MPRJ[97] LA_OENB_MPRJ[98] LA_OENB_MPRJ[99] LA_OENB_MPRJ[100] LA_OENB_MPRJ[101] LA_OENB_MPRJ[102] LA_OENB_MPRJ[103] LA_OENB_MPRJ[104] LA_OENB_MPRJ[105] LA_OENB_MPRJ[106] LA_OENB_MPRJ[107] LA_OENB_MPRJ[108] LA_OENB_MPRJ[109] LA_OENB_MPRJ[110] LA_OENB_MPRJ[111] LA_OENB_MPRJ[112] LA_OENB_MPRJ[113] LA_OENB_MPRJ[114] LA_OENB_MPRJ[115] LA_OENB_MPRJ[116] LA_OENB_MPRJ[117] LA_OENB_MPRJ[118] LA_OENB_MPRJ[119] LA_OENB_MPRJ[120] LA_OENB_MPRJ[121] LA_OENB_MPRJ[122] LA_OENB_MPRJ[123] LA_OENB_MPRJ[124] LA_OENB_MPRJ[125] LA_OENB_MPRJ[126] LA_OENB_MPRJ[127] MPRJ_ADR_O_CORE[0] MPRJ_ADR_O_CORE[1] MPRJ_ADR_O_CORE[2] MPRJ_ADR_O_CORE[3] MPRJ_ADR_O_CORE[4] MPRJ_ADR_O_CORE[5] MPRJ_ADR_O_CORE[6] MPRJ_ADR_O_CORE[7] MPRJ_ADR_O_CORE[8] MPRJ_ADR_O_CORE[9] MPRJ_ADR_O_CORE[10] MPRJ_ADR_O_CORE[11] MPRJ_ADR_O_CORE[12] MPRJ_ADR_O_CORE[13] MPRJ_ADR_O_CORE[14] MPRJ_ADR_O_CORE[15] MPRJ_ADR_O_CORE[16] MPRJ_ADR_O_CORE[17] MPRJ_ADR_O_CORE[18] MPRJ_ADR_O_CORE[19] MPRJ_ADR_O_CORE[20] MPRJ_ADR_O_CORE[21] MPRJ_ADR_O_CORE[22] MPRJ_ADR_O_CORE[23] MPRJ_ADR_O_CORE[24] MPRJ_ADR_O_CORE[25] MPRJ_ADR_O_CORE[26] MPRJ_ADR_O_CORE[27] MPRJ_ADR_O_CORE[28] MPRJ_ADR_O_CORE[29] MPRJ_ADR_O_CORE[30] MPRJ_ADR_O_CORE[31] MPRJ_ADR_O_USER[0] MPRJ_ADR_O_USER[1] MPRJ_ADR_O_USER[2] MPRJ_ADR_O_USER[3] MPRJ_ADR_O_USER[4] MPRJ_ADR_O_USER[5] MPRJ_ADR_O_USER[6] MPRJ_ADR_O_USER[7] MPRJ_ADR_O_USER[8] MPRJ_ADR_O_USER[9] MPRJ_ADR_O_USER[10] MPRJ_ADR_O_USER[11] MPRJ_ADR_O_USER[12] MPRJ_ADR_O_USER[13] MPRJ_ADR_O_USER[14] MPRJ_ADR_O_USER[15] MPRJ_ADR_O_USER[16] MPRJ_ADR_O_USER[17] MPRJ_ADR_O_USER[18] MPRJ_ADR_O_USER[19] MPRJ_ADR_O_USER[20] MPRJ_ADR_O_USER[21] MPRJ_ADR_O_USER[22] MPRJ_ADR_O_USER[23] MPRJ_ADR_O_USER[24] MPRJ_ADR_O_USER[25] MPRJ_ADR_O_USER[26] MPRJ_ADR_O_USER[27] MPRJ_ADR_O_USER[28] MPRJ_ADR_O_USER[29] MPRJ_ADR_O_USER[30] MPRJ_ADR_O_USER[31] MPRJ_DAT_I_CORE[0] MPRJ_DAT_I_CORE[1] MPRJ_DAT_I_CORE[2] MPRJ_DAT_I_CORE[3] MPRJ_DAT_I_CORE[4] MPRJ_DAT_I_CORE[5] MPRJ_DAT_I_CORE[6] MPRJ_DAT_I_CORE[7] MPRJ_DAT_I_CORE[8] MPRJ_DAT_I_CORE[9] MPRJ_DAT_I_CORE[10] MPRJ_DAT_I_CORE[11] MPRJ_DAT_I_CORE[12] MPRJ_DAT_I_CORE[13] MPRJ_DAT_I_CORE[14] MPRJ_DAT_I_CORE[15] MPRJ_DAT_I_CORE[16] MPRJ_DAT_I_CORE[17] MPRJ_DAT_I_CORE[18] MPRJ_DAT_I_CORE[19] MPRJ_DAT_I_CORE[20] MPRJ_DAT_I_CORE[21] MPRJ_DAT_I_CORE[22] MPRJ_DAT_I_CORE[23] MPRJ_DAT_I_CORE[24] MPRJ_DAT_I_CORE[25] MPRJ_DAT_I_CORE[26] MPRJ_DAT_I_CORE[27] MPRJ_DAT_I_CORE[28] MPRJ_DAT_I_CORE[29] MPRJ_DAT_I_CORE[30] MPRJ_DAT_I_CORE[31] MPRJ_DAT_I_USER[0] MPRJ_DAT_I_USER[1] MPRJ_DAT_I_USER[2] MPRJ_DAT_I_USER[3] MPRJ_DAT_I_USER[4] MPRJ_DAT_I_USER[5] MPRJ_DAT_I_USER[6] MPRJ_DAT_I_USER[7] MPRJ_DAT_I_USER[8] MPRJ_DAT_I_USER[9] MPRJ_DAT_I_USER[10] MPRJ_DAT_I_USER[11] MPRJ_DAT_I_USER[12] MPRJ_DAT_I_USER[13] MPRJ_DAT_I_USER[14] MPRJ_DAT_I_USER[15] MPRJ_DAT_I_USER[16] MPRJ_DAT_I_USER[17] MPRJ_DAT_I_USER[18] MPRJ_DAT_I_USER[19] MPRJ_DAT_I_USER[20] MPRJ_DAT_I_USER[21] MPRJ_DAT_I_USER[22] MPRJ_DAT_I_USER[23] MPRJ_DAT_I_USER[24] MPRJ_DAT_I_USER[25] MPRJ_DAT_I_USER[26] MPRJ_DAT_I_USER[27] MPRJ_DAT_I_USER[28] MPRJ_DAT_I_USER[29] MPRJ_DAT_I_USER[30] MPRJ_DAT_I_USER[31] MPRJ_DAT_O_CORE[0] MPRJ_DAT_O_CORE[1] MPRJ_DAT_O_CORE[2] MPRJ_DAT_O_CORE[3] MPRJ_DAT_O_CORE[4] MPRJ_DAT_O_CORE[5] MPRJ_DAT_O_CORE[6] MPRJ_DAT_O_CORE[7] MPRJ_DAT_O_CORE[8] MPRJ_DAT_O_CORE[9] MPRJ_DAT_O_CORE[10] MPRJ_DAT_O_CORE[11] MPRJ_DAT_O_CORE[12] MPRJ_DAT_O_CORE[13] MPRJ_DAT_O_CORE[14] MPRJ_DAT_O_CORE[15] MPRJ_DAT_O_CORE[16] MPRJ_DAT_O_CORE[17] MPRJ_DAT_O_CORE[18] MPRJ_DAT_O_CORE[19] MPRJ_DAT_O_CORE[20] MPRJ_DAT_O_CORE[21] MPRJ_DAT_O_CORE[22] MPRJ_DAT_O_CORE[23] MPRJ_DAT_O_CORE[24] MPRJ_DAT_O_CORE[25] MPRJ_DAT_O_CORE[26] MPRJ_DAT_O_CORE[27] MPRJ_DAT_O_CORE[28] MPRJ_DAT_O_CORE[29] MPRJ_DAT_O_CORE[30] MPRJ_DAT_O_CORE[31] MPRJ_DAT_O_USER[0] MPRJ_DAT_O_USER[1] MPRJ_DAT_O_USER[2] MPRJ_DAT_O_USER[3] MPRJ_DAT_O_USER[4] MPRJ_DAT_O_USER[5] MPRJ_DAT_O_USER[6] MPRJ_DAT_O_USER[7] MPRJ_DAT_O_USER[8] MPRJ_DAT_O_USER[9] MPRJ_DAT_O_USER[10] MPRJ_DAT_O_USER[11] MPRJ_DAT_O_USER[12] MPRJ_DAT_O_USER[13] MPRJ_DAT_O_USER[14] MPRJ_DAT_O_USER[15] MPRJ_DAT_O_USER[16] MPRJ_DAT_O_USER[17] MPRJ_DAT_O_USER[18] MPRJ_DAT_O_USER[19] MPRJ_DAT_O_USER[20] MPRJ_DAT_O_USER[21] MPRJ_DAT_O_USER[22] MPRJ_DAT_O_USER[23] MPRJ_DAT_O_USER[24] MPRJ_DAT_O_USER[25] MPRJ_DAT_O_USER[26] MPRJ_DAT_O_USER[27] MPRJ_DAT_O_USER[28] MPRJ_DAT_O_USER[29] MPRJ_DAT_O_USER[30] MPRJ_DAT_O_USER[31] MPRJ_SEL_O_CORE[0] MPRJ_SEL_O_CORE[1] MPRJ_SEL_O_CORE[2] MPRJ_SEL_O_CORE[3] MPRJ_SEL_O_USER[0] MPRJ_SEL_O_USER[1] MPRJ_SEL_O_USER[2] MPRJ_SEL_O_USER[3] USER_IRQ[0] USER_IRQ[1] USER_IRQ[2] USER_IRQ_CORE[0] USER_IRQ_CORE[1] USER_IRQ_CORE[2] USER_IRQ_ENA[0] USER_IRQ_ENA[1] USER_IRQ_ENA[2] 

XANTENNA__329__A NET478 VSSD VSSD VCCD VCCD SKY130_FD_SC_HD__DIODE_2
XANTENNA__330__A NET479 VSSD VSSD VCCD VCCD SKY130_FD_SC_HD__DIODE_2
XANTENNA__331__A NET480 VSSD VSSD VCCD VCCD SKY130_FD_SC_HD__DIODE_2
XANTENNA__332__A NET481 VSSD VSSD VCCD VCCD SKY130_FD_SC_HD__DIODE_2
XANTENNA__333__A NET483 VSSD VSSD VCCD VCCD SKY130_FD_SC_HD__DIODE_2
XANTENNA__334__A NET484 VSSD VSSD VCCD VCCD SKY130_FD_SC_HD__DIODE_2
XANTENNA__335__A NET485 VSSD VSSD VCCD VCCD SKY130_FD_SC_HD__DIODE_2
XANTENNA__336__A NET486 VSSD VSSD VCCD VCCD SKY130_FD_SC_HD__DIODE_2
XANTENNA__337__A NET487 VSSD VSSD VCCD VCCD SKY130_FD_SC_HD__DIODE_2
XANTENNA__338__A NET488 VSSD VSSD VCCD VCCD SKY130_FD_SC_HD__DIODE_2
XANTENNA__339__A NET489 VSSD VSSD VCCD VCCD SKY130_FD_SC_HD__DIODE_2
XANTENNA__340__A NET490 VSSD VSSD VCCD VCCD SKY130_FD_SC_HD__DIODE_2
XANTENNA__341__A NET491 VSSD VSSD VCCD VCCD SKY130_FD_SC_HD__DIODE_2
XANTENNA__342__A NET492 VSSD VSSD VCCD VCCD SKY130_FD_SC_HD__DIODE_2
XANTENNA__343__A NET494 VSSD VSSD VCCD VCCD SKY130_FD_SC_HD__DIODE_2
XANTENNA__344__A NET495 VSSD VSSD VCCD VCCD SKY130_FD_SC_HD__DIODE_2
XANTENNA__345__A NET496 VSSD VSSD VCCD VCCD SKY130_FD_SC_HD__DIODE_2
XANTENNA__346__A NET497 VSSD VSSD VCCD VCCD SKY130_FD_SC_HD__DIODE_2
XANTENNA__347__A NET498 VSSD VSSD VCCD VCCD SKY130_FD_SC_HD__DIODE_2
XANTENNA__348__A NET499 VSSD VSSD VCCD VCCD SKY130_FD_SC_HD__DIODE_2
XANTENNA__349__A NET500 VSSD VSSD VCCD VCCD SKY130_FD_SC_HD__DIODE_2
XANTENNA__350__A NET501 VSSD VSSD VCCD VCCD SKY130_FD_SC_HD__DIODE_2
XANTENNA__351__A NET502 VSSD VSSD VCCD VCCD SKY130_FD_SC_HD__DIODE_2
XANTENNA__352__A NET503 VSSD VSSD VCCD VCCD SKY130_FD_SC_HD__DIODE_2
XANTENNA__353__A NET505 VSSD VSSD VCCD VCCD SKY130_FD_SC_HD__DIODE_2
XANTENNA__354__A NET506 VSSD VSSD VCCD VCCD SKY130_FD_SC_HD__DIODE_2
XANTENNA__355__A NET507 VSSD VSSD VCCD VCCD SKY130_FD_SC_HD__DIODE_2
XANTENNA__356__A NET508 VSSD VSSD VCCD VCCD SKY130_FD_SC_HD__DIODE_2
XANTENNA__357__A NET509 VSSD VSSD VCCD VCCD SKY130_FD_SC_HD__DIODE_2
XANTENNA__358__A NET510 VSSD VSSD VCCD VCCD SKY130_FD_SC_HD__DIODE_2
XANTENNA__359__A NET511 VSSD VSSD VCCD VCCD SKY130_FD_SC_HD__DIODE_2
XANTENNA__360__A NET512 VSSD VSSD VCCD VCCD SKY130_FD_SC_HD__DIODE_2
XANTENNA__361__A NET513 VSSD VSSD VCCD VCCD SKY130_FD_SC_HD__DIODE_2
XANTENNA__362__A NET514 VSSD VSSD VCCD VCCD SKY130_FD_SC_HD__DIODE_2
XANTENNA__363__A NET389 VSSD VSSD VCCD VCCD SKY130_FD_SC_HD__DIODE_2
XANTENNA__364__A NET390 VSSD VSSD VCCD VCCD SKY130_FD_SC_HD__DIODE_2
XANTENNA__365__A NET391 VSSD VSSD VCCD VCCD SKY130_FD_SC_HD__DIODE_2
XANTENNA__366__A NET392 VSSD VSSD VCCD VCCD SKY130_FD_SC_HD__DIODE_2
XANTENNA__367__A NET393 VSSD VSSD VCCD VCCD SKY130_FD_SC_HD__DIODE_2
XANTENNA__368__A NET394 VSSD VSSD VCCD VCCD SKY130_FD_SC_HD__DIODE_2
XANTENNA__369__A NET395 VSSD VSSD VCCD VCCD SKY130_FD_SC_HD__DIODE_2
XANTENNA__370__A NET396 VSSD VSSD VCCD VCCD SKY130_FD_SC_HD__DIODE_2
XANTENNA__371__A NET397 VSSD VSSD VCCD VCCD SKY130_FD_SC_HD__DIODE_2
XANTENNA__372__A NET398 VSSD VSSD VCCD VCCD SKY130_FD_SC_HD__DIODE_2
XANTENNA__373__A NET400 VSSD VSSD VCCD VCCD SKY130_FD_SC_HD__DIODE_2
XANTENNA__374__A NET401 VSSD VSSD VCCD VCCD SKY130_FD_SC_HD__DIODE_2
XANTENNA__375__A NET402 VSSD VSSD VCCD VCCD SKY130_FD_SC_HD__DIODE_2
XANTENNA__376__A NET403 VSSD VSSD VCCD VCCD SKY130_FD_SC_HD__DIODE_2
XANTENNA__377__A NET404 VSSD VSSD VCCD VCCD SKY130_FD_SC_HD__DIODE_2
XANTENNA__378__A NET405 VSSD VSSD VCCD VCCD SKY130_FD_SC_HD__DIODE_2
XANTENNA__379__A NET406 VSSD VSSD VCCD VCCD SKY130_FD_SC_HD__DIODE_2
XANTENNA__380__A NET407 VSSD VSSD VCCD VCCD SKY130_FD_SC_HD__DIODE_2
XANTENNA__381__A NET408 VSSD VSSD VCCD VCCD SKY130_FD_SC_HD__DIODE_2
XANTENNA__382__A NET409 VSSD VSSD VCCD VCCD SKY130_FD_SC_HD__DIODE_2
XANTENNA__383__A NET411 VSSD VSSD VCCD VCCD SKY130_FD_SC_HD__DIODE_2
XANTENNA__384__A NET412 VSSD VSSD VCCD VCCD SKY130_FD_SC_HD__DIODE_2
XANTENNA__385__A NET413 VSSD VSSD VCCD VCCD SKY130_FD_SC_HD__DIODE_2
XANTENNA__386__A NET414 VSSD VSSD VCCD VCCD SKY130_FD_SC_HD__DIODE_2
XANTENNA__387__A NET415 VSSD VSSD VCCD VCCD SKY130_FD_SC_HD__DIODE_2
XANTENNA__388__A NET416 VSSD VSSD VCCD VCCD SKY130_FD_SC_HD__DIODE_2
XANTENNA__389__A NET417 VSSD VSSD VCCD VCCD SKY130_FD_SC_HD__DIODE_2
XANTENNA__390__A NET418 VSSD VSSD VCCD VCCD SKY130_FD_SC_HD__DIODE_2
XANTENNA__391__A NET1 VSSD VSSD VCCD VCCD SKY130_FD_SC_HD__DIODE_2
XANTENNA__392__A NET2 VSSD VSSD VCCD VCCD SKY130_FD_SC_HD__DIODE_2
XANTENNA__393__A NET549 VSSD VSSD VCCD VCCD SKY130_FD_SC_HD__DIODE_2
XANTENNA__394__A NET619 VSSD VSSD VCCD VCCD SKY130_FD_SC_HD__DIODE_2
XANTENNA__395__A NET620 VSSD VSSD VCCD VCCD SKY130_FD_SC_HD__DIODE_2
XANTENNA__396__A NET615 VSSD VSSD VCCD VCCD SKY130_FD_SC_HD__DIODE_2
XANTENNA__397__A NET616 VSSD VSSD VCCD VCCD SKY130_FD_SC_HD__DIODE_2
XANTENNA__398__A NET617 VSSD VSSD VCCD VCCD SKY130_FD_SC_HD__DIODE_2
XANTENNA__399__A NET618 VSSD VSSD VCCD VCCD SKY130_FD_SC_HD__DIODE_2
XANTENNA__400__A NET517 VSSD VSSD VCCD VCCD SKY130_FD_SC_HD__DIODE_2
XANTENNA__401__A NET528 VSSD VSSD VCCD VCCD SKY130_FD_SC_HD__DIODE_2
XANTENNA__402__A NET539 VSSD VSSD VCCD VCCD SKY130_FD_SC_HD__DIODE_2
XANTENNA__403__A NET542 VSSD VSSD VCCD VCCD SKY130_FD_SC_HD__DIODE_2
XANTENNA__404__A NET543 VSSD VSSD VCCD VCCD SKY130_FD_SC_HD__DIODE_2
XANTENNA__405__A NET544 VSSD VSSD VCCD VCCD SKY130_FD_SC_HD__DIODE_2
XANTENNA__406__A NET545 VSSD VSSD VCCD VCCD SKY130_FD_SC_HD__DIODE_2
XANTENNA__407__A NET546 VSSD VSSD VCCD VCCD SKY130_FD_SC_HD__DIODE_2
XANTENNA__408__A NET547 VSSD VSSD VCCD VCCD SKY130_FD_SC_HD__DIODE_2
XANTENNA__409__A NET548 VSSD VSSD VCCD VCCD SKY130_FD_SC_HD__DIODE_2
XANTENNA__410__A NET518 VSSD VSSD VCCD VCCD SKY130_FD_SC_HD__DIODE_2
XANTENNA__411__A NET519 VSSD VSSD VCCD VCCD SKY130_FD_SC_HD__DIODE_2
XANTENNA__412__A NET520 VSSD VSSD VCCD VCCD SKY130_FD_SC_HD__DIODE_2
XANTENNA__413__A NET521 VSSD VSSD VCCD VCCD SKY130_FD_SC_HD__DIODE_2
XANTENNA__414__A NET522 VSSD VSSD VCCD VCCD SKY130_FD_SC_HD__DIODE_2
XANTENNA__415__A NET523 VSSD VSSD VCCD VCCD SKY130_FD_SC_HD__DIODE_2
XANTENNA__416__A NET524 VSSD VSSD VCCD VCCD SKY130_FD_SC_HD__DIODE_2
XANTENNA__417__A NET525 VSSD VSSD VCCD VCCD SKY130_FD_SC_HD__DIODE_2
XANTENNA__418__A NET526 VSSD VSSD VCCD VCCD SKY130_FD_SC_HD__DIODE_2
XANTENNA__419__A NET527 VSSD VSSD VCCD VCCD SKY130_FD_SC_HD__DIODE_2
XANTENNA__420__A NET529 VSSD VSSD VCCD VCCD SKY130_FD_SC_HD__DIODE_2
XANTENNA__421__A NET530 VSSD VSSD VCCD VCCD SKY130_FD_SC_HD__DIODE_2
XANTENNA__422__A NET531 VSSD VSSD VCCD VCCD SKY130_FD_SC_HD__DIODE_2
XANTENNA__423__A NET532 VSSD VSSD VCCD VCCD SKY130_FD_SC_HD__DIODE_2
XANTENNA__424__A NET533 VSSD VSSD VCCD VCCD SKY130_FD_SC_HD__DIODE_2
XANTENNA__425__A NET534 VSSD VSSD VCCD VCCD SKY130_FD_SC_HD__DIODE_2
XANTENNA__426__A NET535 VSSD VSSD VCCD VCCD SKY130_FD_SC_HD__DIODE_2
XANTENNA__427__A NET536 VSSD VSSD VCCD VCCD SKY130_FD_SC_HD__DIODE_2
XANTENNA__428__A NET537 VSSD VSSD VCCD VCCD SKY130_FD_SC_HD__DIODE_2
XANTENNA__429__A NET538 VSSD VSSD VCCD VCCD SKY130_FD_SC_HD__DIODE_2
XANTENNA__430__A NET540 VSSD VSSD VCCD VCCD SKY130_FD_SC_HD__DIODE_2
XANTENNA__431__A NET541 VSSD VSSD VCCD VCCD SKY130_FD_SC_HD__DIODE_2
XANTENNA__432__A NET582 VSSD VSSD VCCD VCCD SKY130_FD_SC_HD__DIODE_2
XANTENNA__433__A NET593 VSSD VSSD VCCD VCCD SKY130_FD_SC_HD__DIODE_2
XANTENNA__434__A NET604 VSSD VSSD VCCD VCCD SKY130_FD_SC_HD__DIODE_2
XANTENNA__435__A NET607 VSSD VSSD VCCD VCCD SKY130_FD_SC_HD__DIODE_2
XANTENNA__436__A NET608 VSSD VSSD VCCD VCCD SKY130_FD_SC_HD__DIODE_2
XANTENNA__437__A NET609 VSSD VSSD VCCD VCCD SKY130_FD_SC_HD__DIODE_2
XANTENNA__438__A NET610 VSSD VSSD VCCD VCCD SKY130_FD_SC_HD__DIODE_2
XANTENNA__439__A NET611 VSSD VSSD VCCD VCCD SKY130_FD_SC_HD__DIODE_2
XANTENNA__440__A NET612 VSSD VSSD VCCD VCCD SKY130_FD_SC_HD__DIODE_2
XANTENNA__441__A NET613 VSSD VSSD VCCD VCCD SKY130_FD_SC_HD__DIODE_2
XANTENNA__442__A NET583 VSSD VSSD VCCD VCCD SKY130_FD_SC_HD__DIODE_2