*SPICE netlist created from verilog structural netlist module caravel_clocking by vlog2Spice (qflow)
*This file may contain array delimiters, not for use in simulation.

.include /home/marwan/klayout_lvs/lvs/test_cases/caravel_clocking/sky130_fd_sc_hd.spice

.subckt caravel_clocking VGND VPWR core_clk ext_clk ext_clk_sel ext_reset pll_clk
+ pll_clk90 resetb resetb_sync user_clk sel[0] sel[1] sel[2] sel2[0]
+ sel2[1] sel2[2] 

XANTENNA__283__A2 net26 VGND VGND VPWR VPWR sky130_fd_sc_hd__diode_2
XANTENNA__322__A net26 VGND VGND VPWR VPWR sky130_fd_sc_hd__diode_2
XANTENNA__323__B_N net26 VGND VGND VPWR VPWR sky130_fd_sc_hd__diode_2
XANTENNA__347__S net3 VGND VGND VPWR VPWR sky130_fd_sc_hd__diode_2
XANTENNA__349__B net26 VGND VGND VPWR VPWR sky130_fd_sc_hd__diode_2
XANTENNA__421__A1 net26 VGND VGND VPWR VPWR sky130_fd_sc_hd__diode_2
XANTENNA__422__A1 net26 VGND VGND VPWR VPWR sky130_fd_sc_hd__diode_2
XANTENNA__425__A1 net26 VGND VGND VPWR VPWR sky130_fd_sc_hd__diode_2
XANTENNA__439__D net26 VGND VGND VPWR VPWR sky130_fd_sc_hd__diode_2
XANTENNA__445__SET_B net3 VGND VGND VPWR VPWR sky130_fd_sc_hd__diode_2
XANTENNA__446__SET_B net3 VGND VGND VPWR VPWR sky130_fd_sc_hd__diode_2
XANTENNA__447__SET_B net3 VGND VGND VPWR VPWR sky130_fd_sc_hd__diode_2
XANTENNA__448__RESET_B net3 VGND VGND VPWR VPWR sky130_fd_sc_hd__diode_2
XANTENNA__449__RESET_B net3 VGND VGND VPWR VPWR sky130_fd_sc_hd__diode_2
XANTENNA__450__RESET_B net3 VGND VGND VPWR VPWR sky130_fd_sc_hd__diode_2
XANTENNA__451__RESET_B net3 VGND VGND VPWR VPWR sky130_fd_sc_hd__diode_2
XANTENNA__452__SET_B net3 VGND VGND VPWR VPWR sky130_fd_sc_hd__diode_2
XANTENNA__453__RESET_B net3 VGND VGND VPWR VPWR sky130_fd_sc_hd__diode_2
XANTENNA__454__RESET_B net3 VGND VGND VPWR VPWR sky130_fd_sc_hd__diode_2
XANTENNA__455__SET_B net3 VGND VGND VPWR VPWR sky130_fd_sc_hd__diode_2
XANTENNA__456__RESET_B net3 VGND VGND VPWR VPWR sky130_fd_sc_hd__diode_2
XANTENNA__457__RESET_B net3 VGND VGND VPWR VPWR sky130_fd_sc_hd__diode_2
XANTENNA__458__SET_B net3 VGND VGND VPWR VPWR sky130_fd_sc_hd__diode_2
XANTENNA__459__RESET_B net3 VGND VGND VPWR VPWR sky130_fd_sc_hd__diode_2
XANTENNA__460__RESET_B net3 VGND VGND VPWR VPWR sky130_fd_sc_hd__diode_2
XANTENNA__461__SET_B net3 VGND VGND VPWR VPWR sky130_fd_sc_hd__diode_2
XANTENNA__462__RESET_B net3 VGND VGND VPWR VPWR sky130_fd_sc_hd__diode_2
XANTENNA__463__SET_B net3 VGND VGND VPWR VPWR sky130_fd_sc_hd__diode_2
XANTENNA__464__RESET_B net3 VGND VGND VPWR VPWR sky130_fd_sc_hd__diode_2
XANTENNA__465__SET_B net3 VGND VGND VPWR VPWR sky130_fd_sc_hd__diode_2
XANTENNA__466__RESET_B net3 VGND VGND VPWR VPWR sky130_fd_sc_hd__diode_2
XANTENNA__467__RESET_B net3 VGND VGND VPWR VPWR sky130_fd_sc_hd__diode_2
XANTENNA__468__SET_B net3 VGND VGND VPWR VPWR sky130_fd_sc_hd__diode_2
XANTENNA__469__RESET_B net3 VGND VGND VPWR VPWR sky130_fd_sc_hd__diode_2
XANTENNA__470__RESET_B net3 VGND VGND VPWR VPWR sky130_fd_sc_hd__diode_2
XANTENNA__471__SET_B net3 VGND VGND VPWR VPWR sky130_fd_sc_hd__diode_2
XANTENNA__472__RESET_B net3 VGND VGND VPWR VPWR sky130_fd_sc_hd__diode_2
XANTENNA__473__SET_B net3 VGND VGND VPWR VPWR sky130_fd_sc_hd__diode_2
XANTENNA__474__RESET_B net3 VGND VGND VPWR VPWR sky130_fd_sc_hd__diode_2
XANTENNA__475__RESET_B net3 VGND VGND VPWR VPWR sky130_fd_sc_hd__diode_2
XANTENNA__476__SET_B net3 VGND VGND VPWR VPWR sky130_fd_sc_hd__diode_2
XANTENNA__477__RESET_B net3 VGND VGND VPWR VPWR sky130_fd_sc_hd__diode_2
XANTENNA__478__SET_B net3 VGND VGND VPWR VPWR sky130_fd_sc_hd__diode_2
XANTENNA__479__SET_B net3 VGND VGND VPWR VPWR sky130_fd_sc_hd__diode_2
XANTENNA__480__RESET_B net3 VGND VGND VPWR VPWR sky130_fd_sc_hd__diode_2
XANTENNA__481__SET_B net3 VGND VGND VPWR VPWR sky130_fd_sc_hd__diode_2
XANTENNA__482__RESET_B net3 VGND VGND VPWR VPWR sky130_fd_sc_hd__diode_2
XANTENNA__483__SET_B net3 VGND VGND VPWR VPWR sky130_fd_sc_hd__diode_2
XANTENNA__484__RESET_B net3 VGND VGND VPWR VPWR sky130_fd_sc_hd__diode_2
XANTENNA__485__SET_B net3 VGND VGND VPWR VPWR sky130_fd_sc_hd__diode_2
XANTENNA__486__RESET_B net3 VGND VGND VPWR VPWR sky130_fd_sc_hd__diode_2
XANTENNA__487__RESET_B net3 VGND VGND VPWR VPWR sky130_fd_sc_hd__diode_2
XANTENNA__488__SET_B net3 VGND VGND VPWR VPWR sky130_fd_sc_hd__diode_2
XANTENNA__489__RESET_B net3 VGND VGND VPWR VPWR sky130_fd_sc_hd__diode_2
XANTENNA__490__SET_B net3 VGND VGND VPWR VPWR sky130_fd_sc_hd__diode_2
XANTENNA__491__RESET_B net3 VGND VGND VPWR VPWR sky130_fd_sc_hd__diode_2
XANTENNA__492__SET_B net3 VGND VGND VPWR VPWR sky130_fd_sc_hd__diode_2
XANTENNA__493__RESET_B net3 VGND VGND VPWR VPWR sky130_fd_sc_hd__diode_2
XANTENNA__494__RESET_B net3 VGND VGND VPWR VPWR sky130_fd_sc_hd__diode_2
XANTENNA_clkbuf_0_ext_clk_A ext_clk VGND VGND VPWR VPWR sky130_fd_sc_hd__diode_2
XANTENNA_clkbuf_0_pll_clk90_A pll_clk90 VGND VGND VPWR VPWR sky130_fd_sc_hd__diode_2
XANTENNA_clkbuf_0_pll_clk_A pll_clk VGND VGND VPWR VPWR sky130_fd_sc_hd__diode_2
XANTENNA_input1_A ext_clk_sel VGND VGND VPWR VPWR sky130_fd_sc_hd__diode_2
XANTENNA_input2_A ext_reset VGND VGND VPWR VPWR sky130_fd_sc_hd__diode_2
XANTENNA_input3_A resetb VGND VGND VPWR VPWR sky130_fd_sc_hd__diode_2
XANTENNA_input4_A sel2[0] VGND VGND VPWR VPWR sky130_fd_sc_hd__diode_2
XANTENNA_input5_A sel2[1] VGND VGND VPWR VPWR sky130_fd_sc_hd__diode_2
XANTENNA_input6_A sel2[2] VGND VGND VPWR VPWR sky130_fd_sc_hd__diode_2
XANTENNA_input7_A sel[0] VGND VGND VPWR VPWR sky130_fd_sc_hd__diode_2
XANTENNA_input8_A sel[1] VGND VGND VPWR VPWR sky130_fd_sc_hd__diode_2
XANTENNA_input9_A sel[2] VGND VGND VPWR VPWR sky130_fd_sc_hd__diode_2
XFILLER_0_101 VGND VGND VPWR VPWR sky130_fd_sc_hd__decap_3
XFILLER_0_105 VGND VGND VPWR VPWR sky130_fd_sc_hd__decap_8
XFILLER_0_11 VGND VGND VPWR VPWR sky130_fd_sc_hd__fill_2
XFILLER_0_113 VGND VGND VPWR VPWR sky130_fd_sc_hd__fill_1
XFILLER_0_122 VGND VGND VPWR VPWR sky130_fd_sc_hd__decap_8
XFILLER_0_131 VGND VGND VPWR VPWR sky130_fd_sc_hd__fill_1
XFILLER_0_142 VGND VGND VPWR VPWR sky130_fd_sc_hd__fill_1
XFILLER_0_144 VGND VGND VPWR VPWR sky130_fd_sc_hd__decap_12
XFILLER_0_157 VGND VGND VPWR VPWR sky130_fd_sc_hd__fill_1
XFILLER_0_165 VGND VGND VPWR VPWR sky130_fd_sc_hd__decap_4
XFILLER_0_17 VGND VGND VPWR VPWR sky130_fd_sc_hd__decap_8
XFILLER_0_170 VGND VGND VPWR VPWR sky130_fd_sc_hd__decap_12
XFILLER_0_189 VGND VGND VPWR VPWR sky130_fd_sc_hd__decap_6
XFILLER_0_196 VGND VGND VPWR VPWR sky130_fd_sc_hd__decap_4
XFILLER_0_25 VGND VGND VPWR VPWR sky130_fd_sc_hd__fill_1
XFILLER_0_29 VGND VGND VPWR VPWR sky130_fd_sc_hd__decap_3
XFILLER_0_3 VGND VGND VPWR VPWR sky130_fd_sc_hd__decap_8
XFILLER_0_40 VGND VGND VPWR VPWR sky130_fd_sc_hd__decap_12
XFILLER_0_61 VGND VGND VPWR VPWR sky130_fd_sc_hd__decap_4
XFILLER_0_66 VGND VGND VPWR VPWR sky130_fd_sc_hd__decap_3
XFILLER_0_83 VGND VGND VPWR VPWR sky130_fd_sc_hd__decap_8
XFILLER_10_116 VGND VGND VPWR VPWR sky130_fd_sc_hd__fill_1
XFILLER_10_118 VGND VGND VPWR VPWR sky130_fd_sc_hd__fill_1
XFILLER_10_141 VGND VGND VPWR VPWR sky130_fd_sc_hd__fill_2
XFILLER_10_151 VGND VGND VPWR VPWR sky130_fd_sc_hd__fill_1
XFILLER_10_166 VGND VGND VPWR VPWR sky130_fd_sc_hd__fill_1
XFILLER_10_170 VGND VGND VPWR VPWR sky130_fd_sc_hd__fill_1
XFILLER_10_196 VGND VGND VPWR VPWR sky130_fd_sc_hd__fill_1
XFILLER_10_3 VGND VGND VPWR VPWR sky130_fd_sc_hd__decap_4
XFILLER_10_37 VGND VGND VPWR VPWR sky130_fd_sc_hd__fill_2
XFILLER_10_40 VGND VGND VPWR VPWR sky130_fd_sc_hd__decap_3
XFILLER_10_7 VGND VGND VPWR VPWR sky130_fd_sc_hd__fill_1
XFILLER_10_73 VGND VGND VPWR VPWR sky130_fd_sc_hd__fill_2
XFILLER_10_92 VGND VGND VPWR VPWR sky130_fd_sc_hd__fill_2
XFILLER_11_101 VGND VGND VPWR VPWR sky130_fd_sc_hd__decap_3
XFILLER_11_105 VGND VGND VPWR VPWR sky130_fd_sc_hd__decap_12
XFILLER_11_117 VGND VGND VPWR VPWR sky130_fd_sc_hd__decap_8
XFILLER_11_125 VGND VGND VPWR VPWR sky130_fd_sc_hd__fill_2
XFILLER_11_131 VGND VGND VPWR VPWR sky130_fd_sc_hd__decap_3
XFILLER_11_143 VGND VGND VPWR VPWR sky130_fd_sc_hd__decap_3
XFILLER_11_155 VGND VGND VPWR VPWR sky130_fd_sc_hd__fill_1
XFILLER_11_157 VGND VGND VPWR VPWR sky130_fd_sc_hd__fill_1
XFILLER_11_193 VGND VGND VPWR VPWR sky130_fd_sc_hd__decap_8
XFILLER_11_201 VGND VGND VPWR VPWR sky130_fd_sc_hd__fill_1
XFILLER_11_25 VGND VGND VPWR VPWR sky130_fd_sc_hd__fill_1
XFILLER_11_30 VGND VGND VPWR VPWR sky130_fd_sc_hd__decap_3
XFILLER_11_42 VGND VGND VPWR VPWR sky130_fd_sc_hd__fill_1
XFILLER_11_49 VGND VGND VPWR VPWR sky130_fd_sc_hd__decap_3
XFILLER_11_53 VGND VGND VPWR VPWR sky130_fd_sc_hd__decap_4
XFILLER_11_75 VGND VGND VPWR VPWR sky130_fd_sc_hd__decap_3
XFILLER_11_79 VGND VGND VPWR VPWR sky130_fd_sc_hd__fill_2
XFILLER_12_11 VGND VGND VPWR VPWR sky130_fd_sc_hd__fill_2
XFILLER_12_116 VGND VGND VPWR VPWR sky130_fd_sc_hd__fill_1
XFILLER_12_139 VGND VGND VPWR VPWR sky130_fd_sc_hd__decap_4
XFILLER_12_14 VGND VGND VPWR VPWR sky130_fd_sc_hd__decap_3
XFILLER_12_144 VGND VGND VPWR VPWR sky130_fd_sc_hd__decap_8
XFILLER_12_152 VGND VGND VPWR VPWR sky130_fd_sc_hd__fill_1
XFILLER_12_159 VGND VGND VPWR VPWR sky130_fd_sc_hd__fill_1
XFILLER_12_196 VGND VGND VPWR VPWR sky130_fd_sc_hd__fill_1
XFILLER_12_3 VGND VGND VPWR VPWR sky130_fd_sc_hd__decap_4
XFILLER_12_38 VGND VGND VPWR VPWR sky130_fd_sc_hd__fill_1
XFILLER_12_40 VGND VGND VPWR VPWR sky130_fd_sc_hd__fill_2
XFILLER_12_59 VGND VGND VPWR VPWR sky130_fd_sc_hd__decap_4
XFILLER_12_7 VGND VGND VPWR VPWR sky130_fd_sc_hd__fill_1
XFILLER_12_92 VGND VGND VPWR VPWR sky130_fd_sc_hd__fill_1
XFILLER_13_101 VGND VGND VPWR VPWR sky130_fd_sc_hd__decap_3
XFILLER_13_105 VGND VGND VPWR VPWR sky130_fd_sc_hd__decap_4
XFILLER_13_126 VGND VGND VPWR VPWR sky130_fd_sc_hd__decap_4
XFILLER_13_138 VGND VGND VPWR VPWR sky130_fd_sc_hd__decap_8
XFILLER_13_146 VGND VGND VPWR VPWR sky130_fd_sc_hd__fill_1
XFILLER_13_15 VGND VGND VPWR VPWR sky130_fd_sc_hd__decap_4
XFILLER_13_180 VGND VGND VPWR VPWR sky130_fd_sc_hd__fill_2
XFILLER_13_19 VGND VGND VPWR VPWR sky130_fd_sc_hd__fill_1
XFILLER_13_190 VGND VGND VPWR VPWR sky130_fd_sc_hd__decap_12
XFILLER_13_3 VGND VGND VPWR VPWR sky130_fd_sc_hd__decap_12
XFILLER_13_34 VGND VGND VPWR VPWR sky130_fd_sc_hd__decap_8
XFILLER_13_49 VGND VGND VPWR VPWR sky130_fd_sc_hd__decap_3
XFILLER_13_61 VGND VGND VPWR VPWR sky130_fd_sc_hd__fill_2
XFILLER_13_68 VGND VGND VPWR VPWR sky130_fd_sc_hd__fill_2
XFILLER_14_11 VGND VGND VPWR VPWR sky130_fd_sc_hd__fill_2
XFILLER_14_116 VGND VGND VPWR VPWR sky130_fd_sc_hd__fill_1
XFILLER_14_132 VGND VGND VPWR VPWR sky130_fd_sc_hd__decap_4
XFILLER_14_142 VGND VGND VPWR VPWR sky130_fd_sc_hd__fill_1
XFILLER_14_146 VGND VGND VPWR VPWR sky130_fd_sc_hd__decap_4
XFILLER_14_170 VGND VGND VPWR VPWR sky130_fd_sc_hd__fill_1
XFILLER_14_196 VGND VGND VPWR VPWR sky130_fd_sc_hd__decap_6
XFILLER_14_3 VGND VGND VPWR VPWR sky130_fd_sc_hd__decap_8
XFILLER_14_36 VGND VGND VPWR VPWR sky130_fd_sc_hd__decap_3
XFILLER_14_40 VGND VGND VPWR VPWR sky130_fd_sc_hd__decap_12
XFILLER_14_52 VGND VGND VPWR VPWR sky130_fd_sc_hd__decap_6
XFILLER_14_89 VGND VGND VPWR VPWR sky130_fd_sc_hd__fill_2
XFILLER_14_92 VGND VGND VPWR VPWR sky130_fd_sc_hd__decap_4
XFILLER_15_113 VGND VGND VPWR VPWR sky130_fd_sc_hd__fill_1
XFILLER_15_146 VGND VGND VPWR VPWR sky130_fd_sc_hd__fill_1
XFILLER_15_160 VGND VGND VPWR VPWR sky130_fd_sc_hd__fill_1
XFILLER_15_192 VGND VGND VPWR VPWR sky130_fd_sc_hd__decap_4
XFILLER_15_196 VGND VGND VPWR VPWR sky130_fd_sc_hd__fill_1
XFILLER_15_53 VGND VGND VPWR VPWR sky130_fd_sc_hd__decap_3
XFILLER_15_59 VGND VGND VPWR VPWR sky130_fd_sc_hd__decap_3
XFILLER_15_70 VGND VGND VPWR VPWR sky130_fd_sc_hd__fill_1
XFILLER_15_79 VGND VGND VPWR VPWR sky130_fd_sc_hd__fill_2
XFILLER_16_104 VGND VGND VPWR VPWR sky130_fd_sc_hd__fill_1
XFILLER_16_127 VGND VGND VPWR VPWR sky130_fd_sc_hd__fill_2
XFILLER_16_142 VGND VGND VPWR VPWR sky130_fd_sc_hd__fill_1
XFILLER_16_165 VGND VGND VPWR VPWR sky130_fd_sc_hd__fill_1
XFILLER_16_196 VGND VGND VPWR VPWR sky130_fd_sc_hd__decap_6
XFILLER_16_3 VGND VGND VPWR VPWR sky130_fd_sc_hd__decap_6
XFILLER_16_34 VGND VGND VPWR VPWR sky130_fd_sc_hd__decap_4
XFILLER_16_38 VGND VGND VPWR VPWR sky130_fd_sc_hd__fill_1
XFILLER_16_40 VGND VGND VPWR VPWR sky130_fd_sc_hd__fill_1
XFILLER_16_50 VGND VGND VPWR VPWR sky130_fd_sc_hd__decap_8
XFILLER_16_62 VGND VGND VPWR VPWR sky130_fd_sc_hd__decap_3
XFILLER_16_66 VGND VGND VPWR VPWR sky130_fd_sc_hd__decap_4
XFILLER_16_78 VGND VGND VPWR VPWR sky130_fd_sc_hd__fill_2
XFILLER_16_88 VGND VGND VPWR VPWR sky130_fd_sc_hd__decap_3
XFILLER_16_9 VGND VGND VPWR VPWR sky130_fd_sc_hd__fill_1
XFILLER_17_102 VGND VGND VPWR VPWR sky130_fd_sc_hd__fill_2
XFILLER_17_105 VGND VGND VPWR VPWR sky130_fd_sc_hd__fill_1
XFILLER_17_135 VGND VGND VPWR VPWR sky130_fd_sc_hd__fill_1
XFILLER_17_157 VGND VGND VPWR VPWR sky130_fd_sc_hd__fill_1
XFILLER_17_181 VGND VGND VPWR VPWR sky130_fd_sc_hd__fill_1
XFILLER_17_191 VGND VGND VPWR VPWR sky130_fd_sc_hd__decap_8
XFILLER_17_199 VGND VGND VPWR VPWR sky130_fd_sc_hd__decap_3
XFILLER_17_47 VGND VGND VPWR VPWR sky130_fd_sc_hd__decap_4
XFILLER_17_51 VGND VGND VPWR VPWR sky130_fd_sc_hd__fill_1
XFILLER_17_75 VGND VGND VPWR VPWR sky130_fd_sc_hd__decap_3
XFILLER_17_79 VGND VGND VPWR VPWR sky130_fd_sc_hd__fill_1
XFILLER_18_138 VGND VGND VPWR VPWR sky130_fd_sc_hd__decap_3
XFILLER_18_165 VGND VGND VPWR VPWR sky130_fd_sc_hd__decap_4
XFILLER_18_170 VGND VGND VPWR VPWR sky130_fd_sc_hd__fill_2
XFILLER_18_196 VGND VGND VPWR VPWR sky130_fd_sc_hd__fill_1
XFILLER_18_3 VGND VGND VPWR VPWR sky130_fd_sc_hd__fill_1
XFILLER_18_38 VGND VGND VPWR VPWR sky130_fd_sc_hd__fill_1
XFILLER_18_45 VGND VGND VPWR VPWR sky130_fd_sc_hd__decap_12
XFILLER_18_57 VGND VGND VPWR VPWR sky130_fd_sc_hd__decap_6
XFILLER_18_87 VGND VGND VPWR VPWR sky130_fd_sc_hd__decap_4
XFILLER_18_9 VGND VGND VPWR VPWR sky130_fd_sc_hd__fill_1
XFILLER_18_94 VGND VGND VPWR VPWR sky130_fd_sc_hd__fill_1
XFILLER_19_101 VGND VGND VPWR VPWR sky130_fd_sc_hd__decap_3
XFILLER_19_105 VGND VGND VPWR VPWR sky130_fd_sc_hd__decap_4
XFILLER_19_11 VGND VGND VPWR VPWR sky130_fd_sc_hd__fill_2
XFILLER_19_112 VGND VGND VPWR VPWR sky130_fd_sc_hd__decap_4
XFILLER_19_116 VGND VGND VPWR VPWR sky130_fd_sc_hd__fill_1
XFILLER_19_120 VGND VGND VPWR VPWR sky130_fd_sc_hd__decap_8
XFILLER_19_128 VGND VGND VPWR VPWR sky130_fd_sc_hd__fill_2
XFILLER_19_14 VGND VGND VPWR VPWR sky130_fd_sc_hd__decap_6
XFILLER_19_140 VGND VGND VPWR VPWR sky130_fd_sc_hd__decap_3
XFILLER_19_144 VGND VGND VPWR VPWR sky130_fd_sc_hd__fill_1
XFILLER_19_154 VGND VGND VPWR VPWR sky130_fd_sc_hd__fill_2
XFILLER_19_160 VGND VGND VPWR VPWR sky130_fd_sc_hd__fill_1
XFILLER_19_166 VGND VGND VPWR VPWR sky130_fd_sc_hd__decap_3
XFILLER_19_178 VGND VGND VPWR VPWR sky130_fd_sc_hd__decap_4
XFILLER_19_188 VGND VGND VPWR VPWR sky130_fd_sc_hd__decap_4
XFILLER_19_192 VGND VGND VPWR VPWR sky130_fd_sc_hd__fill_1
XFILLER_19_20 VGND VGND VPWR VPWR sky130_fd_sc_hd__fill_1
XFILLER_19_24 VGND VGND VPWR VPWR sky130_fd_sc_hd__fill_2
XFILLER_19_27 VGND VGND VPWR VPWR sky130_fd_sc_hd__decap_12
XFILLER_19_3 VGND VGND VPWR VPWR sky130_fd_sc_hd__decap_8
XFILLER_19_47 VGND VGND VPWR VPWR sky130_fd_sc_hd__decap_4
XFILLER_19_51 VGND VGND VPWR VPWR sky130_fd_sc_hd__fill_1
XFILLER_19_53 VGND VGND VPWR VPWR sky130_fd_sc_hd__decap_12
XFILLER_19_66 VGND VGND VPWR VPWR sky130_fd_sc_hd__fill_1
XFILLER_19_72 VGND VGND VPWR VPWR sky130_fd_sc_hd__decap_6
XFILLER_19_82 VGND VGND VPWR VPWR sky130_fd_sc_hd__fill_2
XFILLER_1_127 VGND VGND VPWR VPWR sky130_fd_sc_hd__decap_3
XFILLER_1_148 VGND VGND VPWR VPWR sky130_fd_sc_hd__fill_2
XFILLER_1_155 VGND VGND VPWR VPWR sky130_fd_sc_hd__fill_1
XFILLER_1_25 VGND VGND VPWR VPWR sky130_fd_sc_hd__fill_1
XFILLER_1_3 VGND VGND VPWR VPWR sky130_fd_sc_hd__fill_1
XFILLER_1_45 VGND VGND VPWR VPWR sky130_fd_sc_hd__decap_4
XFILLER_1_49 VGND VGND VPWR VPWR sky130_fd_sc_hd__fill_1
XFILLER_1_77 VGND VGND VPWR VPWR sky130_fd_sc_hd__fill_1
XFILLER_2_10 VGND VGND VPWR VPWR sky130_fd_sc_hd__decap_3
XFILLER_2_115 VGND VGND VPWR VPWR sky130_fd_sc_hd__fill_2
XFILLER_2_125 VGND VGND VPWR VPWR sky130_fd_sc_hd__decap_6
XFILLER_2_131 VGND VGND VPWR VPWR sky130_fd_sc_hd__fill_1
XFILLER_2_141 VGND VGND VPWR VPWR sky130_fd_sc_hd__fill_2
XFILLER_2_147 VGND VGND VPWR VPWR sky130_fd_sc_hd__decap_4
XFILLER_2_151 VGND VGND VPWR VPWR sky130_fd_sc_hd__fill_1
XFILLER_2_170 VGND VGND VPWR VPWR sky130_fd_sc_hd__decap_3
XFILLER_2_196 VGND VGND VPWR VPWR sky130_fd_sc_hd__decap_6
XFILLER_2_3 VGND VGND VPWR VPWR sky130_fd_sc_hd__fill_2
XFILLER_2_38 VGND VGND VPWR VPWR sky130_fd_sc_hd__fill_1
XFILLER_2_42 VGND VGND VPWR VPWR sky130_fd_sc_hd__decap_8
XFILLER_2_50 VGND VGND VPWR VPWR sky130_fd_sc_hd__fill_1
XFILLER_2_60 VGND VGND VPWR VPWR sky130_fd_sc_hd__fill_2
XFILLER_2_82 VGND VGND VPWR VPWR sky130_fd_sc_hd__fill_1
XFILLER_3_12 VGND VGND VPWR VPWR sky130_fd_sc_hd__decap_8
XFILLER_3_131 VGND VGND VPWR VPWR sky130_fd_sc_hd__decap_6
XFILLER_3_137 VGND VGND VPWR VPWR sky130_fd_sc_hd__fill_1
XFILLER_3_147 VGND VGND VPWR VPWR sky130_fd_sc_hd__decap_3
XFILLER_3_166 VGND VGND VPWR VPWR sky130_fd_sc_hd__decap_6
XFILLER_3_172 VGND VGND VPWR VPWR sky130_fd_sc_hd__fill_1
XFILLER_3_199 VGND VGND VPWR VPWR sky130_fd_sc_hd__decap_3
XFILLER_3_20 VGND VGND VPWR VPWR sky130_fd_sc_hd__decap_3
XFILLER_3_3 VGND VGND VPWR VPWR sky130_fd_sc_hd__decap_6
XFILLER_3_77 VGND VGND VPWR VPWR sky130_fd_sc_hd__fill_1
XFILLER_3_95 VGND VGND VPWR VPWR sky130_fd_sc_hd__decap_4
XFILLER_3_99 VGND VGND VPWR VPWR sky130_fd_sc_hd__fill_1
XFILLER_4_100 VGND VGND VPWR VPWR sky130_fd_sc_hd__decap_4
XFILLER_4_107 VGND VGND VPWR VPWR sky130_fd_sc_hd__decap_8
XFILLER_4_11 VGND VGND VPWR VPWR sky130_fd_sc_hd__fill_2
XFILLER_4_115 VGND VGND VPWR VPWR sky130_fd_sc_hd__fill_2
XFILLER_4_118 VGND VGND VPWR VPWR sky130_fd_sc_hd__fill_2
XFILLER_4_131 VGND VGND VPWR VPWR sky130_fd_sc_hd__decap_12
XFILLER_4_14 VGND VGND VPWR VPWR sky130_fd_sc_hd__decap_6
XFILLER_4_3 VGND VGND VPWR VPWR sky130_fd_sc_hd__decap_4
XFILLER_4_34 VGND VGND VPWR VPWR sky130_fd_sc_hd__fill_1
XFILLER_4_47 VGND VGND VPWR VPWR sky130_fd_sc_hd__fill_2
XFILLER_4_57 VGND VGND VPWR VPWR sky130_fd_sc_hd__fill_1
XFILLER_4_7 VGND VGND VPWR VPWR sky130_fd_sc_hd__fill_1
XFILLER_4_83 VGND VGND VPWR VPWR sky130_fd_sc_hd__decap_8
XFILLER_4_92 VGND VGND VPWR VPWR sky130_fd_sc_hd__fill_1
XFILLER_5_103 VGND VGND VPWR VPWR sky130_fd_sc_hd__fill_1
XFILLER_5_108 VGND VGND VPWR VPWR sky130_fd_sc_hd__decap_12
XFILLER_5_120 VGND VGND VPWR VPWR sky130_fd_sc_hd__decap_8
XFILLER_5_197 VGND VGND VPWR VPWR sky130_fd_sc_hd__decap_4
XFILLER_5_201 VGND VGND VPWR VPWR sky130_fd_sc_hd__fill_1
XFILLER_5_25 VGND VGND VPWR VPWR sky130_fd_sc_hd__fill_1
XFILLER_5_51 VGND VGND VPWR VPWR sky130_fd_sc_hd__fill_1
XFILLER_5_76 VGND VGND VPWR VPWR sky130_fd_sc_hd__fill_2
XFILLER_5_83 VGND VGND VPWR VPWR sky130_fd_sc_hd__decap_4
XFILLER_5_99 VGND VGND VPWR VPWR sky130_fd_sc_hd__decap_4
XFILLER_6_11 VGND VGND VPWR VPWR sky130_fd_sc_hd__fill_2
XFILLER_6_113 VGND VGND VPWR VPWR sky130_fd_sc_hd__decap_4
XFILLER_6_125 VGND VGND VPWR VPWR sky130_fd_sc_hd__decap_6
XFILLER_6_131 VGND VGND VPWR VPWR sky130_fd_sc_hd__fill_1
XFILLER_6_137 VGND VGND VPWR VPWR sky130_fd_sc_hd__decap_3
XFILLER_6_168 VGND VGND VPWR VPWR sky130_fd_sc_hd__fill_1
XFILLER_6_17 VGND VGND VPWR VPWR sky130_fd_sc_hd__decap_8
XFILLER_6_196 VGND VGND VPWR VPWR sky130_fd_sc_hd__fill_1
XFILLER_6_25 VGND VGND VPWR VPWR sky130_fd_sc_hd__fill_1
XFILLER_6_28 VGND VGND VPWR VPWR sky130_fd_sc_hd__decap_6
XFILLER_6_3 VGND VGND VPWR VPWR sky130_fd_sc_hd__decap_8
XFILLER_6_37 VGND VGND VPWR VPWR sky130_fd_sc_hd__fill_2
XFILLER_6_56 VGND VGND VPWR VPWR sky130_fd_sc_hd__fill_1
XFILLER_6_64 VGND VGND VPWR VPWR sky130_fd_sc_hd__fill_1
XFILLER_6_66 VGND VGND VPWR VPWR sky130_fd_sc_hd__decap_3
XFILLER_6_78 VGND VGND VPWR VPWR sky130_fd_sc_hd__decap_6
XFILLER_6_84 VGND VGND VPWR VPWR sky130_fd_sc_hd__fill_1
XFILLER_7_105 VGND VGND VPWR VPWR sky130_fd_sc_hd__decap_8
XFILLER_7_125 VGND VGND VPWR VPWR sky130_fd_sc_hd__decap_4
XFILLER_7_129 VGND VGND VPWR VPWR sky130_fd_sc_hd__fill_1
XFILLER_7_131 VGND VGND VPWR VPWR sky130_fd_sc_hd__fill_2
XFILLER_7_155 VGND VGND VPWR VPWR sky130_fd_sc_hd__fill_1
XFILLER_7_187 VGND VGND VPWR VPWR sky130_fd_sc_hd__decap_6
XFILLER_7_200 VGND VGND VPWR VPWR sky130_fd_sc_hd__fill_2
XFILLER_7_27 VGND VGND VPWR VPWR sky130_fd_sc_hd__fill_1
XFILLER_7_3 VGND VGND VPWR VPWR sky130_fd_sc_hd__fill_2
XFILLER_7_50 VGND VGND VPWR VPWR sky130_fd_sc_hd__fill_2
XFILLER_7_53 VGND VGND VPWR VPWR sky130_fd_sc_hd__decap_8
XFILLER_7_67 VGND VGND VPWR VPWR sky130_fd_sc_hd__decap_8
XFILLER_7_75 VGND VGND VPWR VPWR sky130_fd_sc_hd__decap_3
XFILLER_7_82 VGND VGND VPWR VPWR sky130_fd_sc_hd__decap_8
XFILLER_7_90 VGND VGND VPWR VPWR sky130_fd_sc_hd__fill_1
XFILLER_7_98 VGND VGND VPWR VPWR sky130_fd_sc_hd__decap_6
XFILLER_8_12 VGND VGND VPWR VPWR sky130_fd_sc_hd__fill_1
XFILLER_8_127 VGND VGND VPWR VPWR sky130_fd_sc_hd__fill_2
XFILLER_8_131 VGND VGND VPWR VPWR sky130_fd_sc_hd__decap_12
XFILLER_8_170 VGND VGND VPWR VPWR sky130_fd_sc_hd__fill_1
XFILLER_8_3 VGND VGND VPWR VPWR sky130_fd_sc_hd__decap_6
XFILLER_8_37 VGND VGND VPWR VPWR sky130_fd_sc_hd__fill_2
XFILLER_8_55 VGND VGND VPWR VPWR sky130_fd_sc_hd__decap_3
XFILLER_8_90 VGND VGND VPWR VPWR sky130_fd_sc_hd__fill_1
XFILLER_8_92 VGND VGND VPWR VPWR sky130_fd_sc_hd__fill_2
XFILLER_9_103 VGND VGND VPWR VPWR sky130_fd_sc_hd__fill_1
XFILLER_9_14 VGND VGND VPWR VPWR sky130_fd_sc_hd__decap_4
XFILLER_9_151 VGND VGND VPWR VPWR sky130_fd_sc_hd__decap_3
XFILLER_9_18 VGND VGND VPWR VPWR sky130_fd_sc_hd__fill_1
XFILLER_9_190 VGND VGND VPWR VPWR sky130_fd_sc_hd__decap_12
XFILLER_9_3 VGND VGND VPWR VPWR sky130_fd_sc_hd__decap_8
XFILLER_9_43 VGND VGND VPWR VPWR sky130_fd_sc_hd__decap_6
XFILLER_9_62 VGND VGND VPWR VPWR sky130_fd_sc_hd__fill_2
XFILLER_9_68 VGND VGND VPWR VPWR sky130_fd_sc_hd__decap_4
XFILLER_9_72 VGND VGND VPWR VPWR sky130_fd_sc_hd__fill_1
XFILLER_9_77 VGND VGND VPWR VPWR sky130_fd_sc_hd__fill_1
XFILLER_9_79 VGND VGND VPWR VPWR sky130_fd_sc_hd__decap_8
XFILLER_9_87 VGND VGND VPWR VPWR sky130_fd_sc_hd__decap_3
XFILLER_9_97 VGND VGND VPWR VPWR sky130_fd_sc_hd__fill_2
XPHY_0 VGND VGND VPWR VPWR sky130_fd_sc_hd__decap_3
XPHY_1 VGND VGND VPWR VPWR sky130_fd_sc_hd__decap_3
XPHY_10 VGND VGND VPWR VPWR sky130_fd_sc_hd__decap_3
XPHY_11 VGND VGND VPWR VPWR sky130_fd_sc_hd__decap_3
XPHY_12 VGND VGND VPWR VPWR sky130_fd_sc_hd__decap_3
XPHY_13 VGND VGND VPWR VPWR sky130_fd_sc_hd__decap_3
XPHY_14 VGND VGND VPWR VPWR sky130_fd_sc_hd__decap_3
XPHY_15 VGND VGND VPWR VPWR sky130_fd_sc_hd__decap_3
XPHY_16 VGND VGND VPWR VPWR sky130_fd_sc_hd__decap_3
XPHY_17 VGND VGND VPWR VPWR sky130_fd_sc_hd__decap_3
XPHY_18 VGND VGND VPWR VPWR sky130_fd_sc_hd__decap_3
XPHY_19 VGND VGND VPWR VPWR sky130_fd_sc_hd__decap_3
XPHY_2 VGND VGND VPWR VPWR sky130_fd_sc_hd__decap_3
XPHY_20 VGND VGND VPWR VPWR sky130_fd_sc_hd__decap_3
XPHY_21 VGND VGND VPWR VPWR sky130_fd_sc_hd__decap_3
XPHY_22 VGND VGND VPWR VPWR sky130_fd_sc_hd__decap_3
XPHY_23 VGND VGND VPWR VPWR sky130_fd_sc_hd__decap_3
XPHY_24 VGND VGND VPWR VPWR sky130_fd_sc_hd__decap_3
XPHY_25 VGND VGND VPWR VPWR sky130_fd_sc_hd__decap_3
XPHY_26 VGND VGND VPWR VPWR sky130_fd_sc_hd__decap_3
XPHY_27 VGND VGND VPWR VPWR sky130_fd_sc_hd__decap_3
XPHY_28 VGND VGND VPWR VPWR sky130_fd_sc_hd__decap_3
XPHY_29 VGND VGND VPWR VPWR sky130_fd_sc_hd__decap_3
XPHY_3 VGND VGND VPWR VPWR sky130_fd_sc_hd__decap_3
XPHY_30 VGND VGND VPWR VPWR sky130_fd_sc_hd__decap_3
XPHY_31 VGND VGND VPWR VPWR sky130_fd_sc_hd__decap_3
XPHY_32 VGND VGND VPWR VPWR sky130_fd_sc_hd__decap_3
XPHY_33 VGND VGND VPWR VPWR sky130_fd_sc_hd__decap_3
XPHY_34 VGND VGND VPWR VPWR sky130_fd_sc_hd__decap_3
XPHY_35 VGND VGND VPWR VPWR sky130_fd_sc_hd__decap_3
XPHY_36 VGND VGND VPWR VPWR sky130_fd_sc_hd__decap_3
XPHY_37 VGND VGND VPWR VPWR sky130_fd_sc_hd__decap_3
XPHY_38 VGND VGND VPWR VPWR sky130_fd_sc_hd__decap_3
XPHY_39 VGND VGND VPWR VPWR sky130_fd_sc_hd__decap_3
XPHY_4 VGND VGND VPWR VPWR sky130_fd_sc_hd__decap_3
XPHY_5 VGND VGND VPWR VPWR sky130_fd_sc_hd__decap_3
XPHY_6 VGND VGND VPWR VPWR sky130_fd_sc_hd__decap_3
XPHY_7 VGND VGND VPWR VPWR sky130_fd_sc_hd__decap_3
XPHY_8 VGND VGND VPWR VPWR sky130_fd_sc_hd__decap_3
XPHY_9 VGND VGND VPWR VPWR sky130_fd_sc_hd__decap_3
XTAP_100 VGND VPWR sky130_fd_sc_hd__tapvpwrvgnd_1
XTAP_101 VGND VPWR sky130_fd_sc_hd__tapvpwrvgnd_1
XTAP_102 VGND VPWR sky130_fd_sc_hd__tapvpwrvgnd_1
XTAP_103 VGND VPWR sky130_fd_sc_hd__tapvpwrvgnd_1
XTAP_104 VGND VPWR sky130_fd_sc_hd__tapvpwrvgnd_1
XTAP_105 VGND VPWR sky130_fd_sc_hd__tapvpwrvgnd_1
XTAP_106 VGND VPWR sky130_fd_sc_hd__tapvpwrvgnd_1
XTAP_107 VGND VPWR sky130_fd_sc_hd__tapvpwrvgnd_1
XTAP_108 VGND VPWR sky130_fd_sc_hd__tapvpwrvgnd_1
XTAP_109 VGND VPWR sky130_fd_sc_hd__tapvpwrvgnd_1
XTAP_110 VGND VPWR sky130_fd_sc_hd__tapvpwrvgnd_1
XTAP_111 VGND VPWR sky130_fd_sc_hd__tapvpwrvgnd_1
XTAP_112 VGND VPWR sky130_fd_sc_hd__tapvpwrvgnd_1
XTAP_113 VGND VPWR sky130_fd_sc_hd__tapvpwrvgnd_1
XTAP_114 VGND VPWR sky130_fd_sc_hd__tapvpwrvgnd_1
XTAP_115 VGND VPWR sky130_fd_sc_hd__tapvpwrvgnd_1
XTAP_116 VGND VPWR sky130_fd_sc_hd__tapvpwrvgnd_1
XTAP_117 VGND VPWR sky130_fd_sc_hd__tapvpwrvgnd_1
XTAP_118 VGND VPWR sky130_fd_sc_hd__tapvpwrvgnd_1
XTAP_119 VGND VPWR sky130_fd_sc_hd__tapvpwrvgnd_1
XTAP_120 VGND VPWR sky130_fd_sc_hd__tapvpwrvgnd_1
XTAP_121 VGND VPWR sky130_fd_sc_hd__tapvpwrvgnd_1
XTAP_122 VGND VPWR sky130_fd_sc_hd__tapvpwrvgnd_1
XTAP_123 VGND VPWR sky130_fd_sc_hd__tapvpwrvgnd_1
XTAP_124 VGND VPWR sky130_fd_sc_hd__tapvpwrvgnd_1
XTAP_125 VGND VPWR sky130_fd_sc_hd__tapvpwrvgnd_1
XTAP_126 VGND VPWR sky130_fd_sc_hd__tapvpwrvgnd_1
XTAP_127 VGND VPWR sky130_fd_sc_hd__tapvpwrvgnd_1
XTAP_128 VGND VPWR sky130_fd_sc_hd__tapvpwrvgnd_1
XTAP_129 VGND VPWR sky130_fd_sc_hd__tapvpwrvgnd_1
XTAP_130 VGND VPWR sky130_fd_sc_hd__tapvpwrvgnd_1
XTAP_131 VGND VPWR sky130_fd_sc_hd__tapvpwrvgnd_1
XTAP_132 VGND VPWR sky130_fd_sc_hd__tapvpwrvgnd_1
XTAP_133 VGND VPWR sky130_fd_sc_hd__tapvpwrvgnd_1
XTAP_134 VGND VPWR sky130_fd_sc_hd__tapvpwrvgnd_1
XTAP_135 VGND VPWR sky130_fd_sc_hd__tapvpwrvgnd_1
XTAP_136 VGND VPWR sky130_fd_sc_hd__tapvpwrvgnd_1
XTAP_137 VGND VPWR sky130_fd_sc_hd__tapvpwrvgnd_1
XTAP_138 VGND VPWR sky130_fd_sc_hd__tapvpwrvgnd_1
XTAP_139 VGND VPWR sky130_fd_sc_hd__tapvpwrvgnd_1
XTAP_140 VGND VPWR sky130_fd_sc_hd__tapvpwrvgnd_1
XTAP_141 VGND VPWR sky130_fd_sc_hd__tapvpwrvgnd_1
XTAP_142 VGND VPWR sky130_fd_sc_hd__tapvpwrvgnd_1
XTAP_143 VGND VPWR sky130_fd_sc_hd__tapvpwrvgnd_1
XTAP_144 VGND VPWR sky130_fd_sc_hd__tapvpwrvgnd_1
XTAP_145 VGND VPWR sky130_fd_sc_hd__tapvpwrvgnd_1
XTAP_146 VGND VPWR sky130_fd_sc_hd__tapvpwrvgnd_1
XTAP_147 VGND VPWR sky130_fd_sc_hd__tapvpwrvgnd_1
XTAP_148 VGND VPWR sky130_fd_sc_hd__tapvpwrvgnd_1
XTAP_149 VGND VPWR sky130_fd_sc_hd__tapvpwrvgnd_1
XTAP_150 VGND VPWR sky130_fd_sc_hd__tapvpwrvgnd_1
XTAP_151 VGND VPWR sky130_fd_sc_hd__tapvpwrvgnd_1
XTAP_152 VGND VPWR sky130_fd_sc_hd__tapvpwrvgnd_1
XTAP_153 VGND VPWR sky130_fd_sc_hd__tapvpwrvgnd_1
XTAP_154 VGND VPWR sky130_fd_sc_hd__tapvpwrvgnd_1
XTAP_155 VGND VPWR sky130_fd_sc_hd__tapvpwrvgnd_1
XTAP_156 VGND VPWR sky130_fd_sc_hd__tapvpwrvgnd_1
XTAP_157 VGND VPWR sky130_fd_sc_hd__tapvpwrvgnd_1
XTAP_158 VGND VPWR sky130_fd_sc_hd__tapvpwrvgnd_1
XTAP_159 VGND VPWR sky130_fd_sc_hd__tapvpwrvgnd_1
XTAP_160 VGND VPWR sky130_fd_sc_hd__tapvpwrvgnd_1
XTAP_161 VGND VPWR sky130_fd_sc_hd__tapvpwrvgnd_1
XTAP_162 VGND VPWR sky130_fd_sc_hd__tapvpwrvgnd_1
XTAP_163 VGND VPWR sky130_fd_sc_hd__tapvpwrvgnd_1
XTAP_164 VGND VPWR sky130_fd_sc_hd__tapvpwrvgnd_1
XTAP_165 VGND VPWR sky130_fd_sc_hd__tapvpwrvgnd_1
XTAP_166 VGND VPWR sky130_fd_sc_hd__tapvpwrvgnd_1
XTAP_167 VGND VPWR sky130_fd_sc_hd__tapvpwrvgnd_1
XTAP_168 VGND VPWR sky130_fd_sc_hd__tapvpwrvgnd_1
XTAP_169 VGND VPWR sky130_fd_sc_hd__tapvpwrvgnd_1
XTAP_170 VGND VPWR sky130_fd_sc_hd__tapvpwrvgnd_1
XTAP_171 VGND VPWR sky130_fd_sc_hd__tapvpwrvgnd_1
XTAP_172 VGND VPWR sky130_fd_sc_hd__tapvpwrvgnd_1
XTAP_173 VGND VPWR sky130_fd_sc_hd__tapvpwrvgnd_1
XTAP_174 VGND VPWR sky130_fd_sc_hd__tapvpwrvgnd_1
XTAP_175 VGND VPWR sky130_fd_sc_hd__tapvpwrvgnd_1
XTAP_176 VGND VPWR sky130_fd_sc_hd__tapvpwrvgnd_1
XTAP_177 VGND VPWR sky130_fd_sc_hd__tapvpwrvgnd_1
XTAP_178 VGND VPWR sky130_fd_sc_hd__tapvpwrvgnd_1
XTAP_179 VGND VPWR sky130_fd_sc_hd__tapvpwrvgnd_1
XTAP_180 VGND VPWR sky130_fd_sc_hd__tapvpwrvgnd_1
XTAP_181 VGND VPWR sky130_fd_sc_hd__tapvpwrvgnd_1
XTAP_182 VGND VPWR sky130_fd_sc_hd__tapvpwrvgnd_1
XTAP_183 VGND VPWR sky130_fd_sc_hd__tapvpwrvgnd_1
XTAP_184 VGND VPWR sky130_fd_sc_hd__tapvpwrvgnd_1
XTAP_185 VGND VPWR sky130_fd_sc_hd__tapvpwrvgnd_1
XTAP_186 VGND VPWR sky130_fd_sc_hd__tapvpwrvgnd_1
XTAP_187 VGND VPWR sky130_fd_sc_hd__tapvpwrvgnd_1
XTAP_188 VGND VPWR sky130_fd_sc_hd__tapvpwrvgnd_1
XTAP_189 VGND VPWR sky130_fd_sc_hd__tapvpwrvgnd_1
XTAP_190 VGND VPWR sky130_fd_sc_hd__tapvpwrvgnd_1
XTAP_191 VGND VPWR sky130_fd_sc_hd__tapvpwrvgnd_1
XTAP_192 VGND VPWR sky130_fd_sc_hd__tapvpwrvgnd_1
XTAP_193 VGND VPWR sky130_fd_sc_hd__tapvpwrvgnd_1
XTAP_194 VGND VPWR sky130_fd_sc_hd__tapvpwrvgnd_1
XTAP_195 VGND VPWR sky130_fd_sc_hd__tapvpwrvgnd_1
XTAP_196 VGND VPWR sky130_fd_sc_hd__tapvpwrvgnd_1
XTAP_197 VGND VPWR sky130_fd_sc_hd__tapvpwrvgnd_1
XTAP_198 VGND VPWR sky130_fd_sc_hd__tapvpwrvgnd_1
XTAP_199 VGND VPWR sky130_fd_sc_hd__tapvpwrvgnd_1
XTAP_200 VGND VPWR sky130_fd_sc_hd__tapvpwrvgnd_1
XTAP_201 VGND VPWR sky130_fd_sc_hd__tapvpwrvgnd_1
XTAP_202 VGND VPWR sky130_fd_sc_hd__tapvpwrvgnd_1
XTAP_203 VGND VPWR sky130_fd_sc_hd__tapvpwrvgnd_1
XTAP_204 VGND VPWR sky130_fd_sc_hd__tapvpwrvgnd_1
XTAP_40 VGND VPWR sky130_fd_sc_hd__tapvpwrvgnd_1
XTAP_41 VGND VPWR sky130_fd_sc_hd__tapvpwrvgnd_1
XTAP_42 VGND VPWR sky130_fd_sc_hd__tapvpwrvgnd_1
XTAP_43 VGND VPWR sky130_fd_sc_hd__tapvpwrvgnd_1
XTAP_44 VGND VPWR sky130_fd_sc_hd__tapvpwrvgnd_1
XTAP_45 VGND VPWR sky130_fd_sc_hd__tapvpwrvgnd_1
XTAP_46 VGND VPWR sky130_fd_sc_hd__tapvpwrvgnd_1
XTAP_47 VGND VPWR sky130_fd_sc_hd__tapvpwrvgnd_1
XTAP_48 VGND VPWR sky130_fd_sc_hd__tapvpwrvgnd_1
XTAP_49 VGND VPWR sky130_fd_sc_hd__tapvpwrvgnd_1
XTAP_50 VGND VPWR sky130_fd_sc_hd__tapvpwrvgnd_1
XTAP_51 VGND VPWR sky130_fd_sc_hd__tapvpwrvgnd_1
XTAP_52 VGND VPWR sky130_fd_sc_hd__tapvpwrvgnd_1
XTAP_53 VGND VPWR sky130_fd_sc_hd__tapvpwrvgnd_1
XTAP_54 VGND VPWR sky130_fd_sc_hd__tapvpwrvgnd_1
XTAP_55 VGND VPWR sky130_fd_sc_hd__tapvpwrvgnd_1