* Extracted by KLayout on : 19/01/2022 09:20

.SUBCKT digital_pll resetb clockp[0] clockp[1] ext_trim[25] VPWR osc div[0]
+ div[1] ext_trim[24] div[2] div[3] div[4] ext_trim[23] enable dco ext_trim[0]
+ ext_trim[13] ext_trim[22] ext_trim[11] ext_trim[1] ext_trim[14] ext_trim[12]
+ ext_trim[8] ext_trim[10] ext_trim[2] ext_trim[21] ext_trim[9] ext_trim[15]
+ ext_trim[5] ext_trim[3] ext_trim[18] ext_trim[19] ext_trim[4] ext_trim[6]
+ ext_trim[20] ext_trim[17] ext_trim[16] ext_trim[7] VGND
X$1 VPWR VPWR \$171 resetb VGND enable VGND sky130_fd_sc_hd__nand2_2
X$2 VPWR VGND clockp[0] VPWR \$17 VGND sky130_fd_sc_hd__buf_2
X$3 VGND clockp[1] \$170 VPWR VPWR VGND sky130_fd_sc_hd__clkinv_8
X$4 VPWR \$5 VGND VPWR \$15 VGND sky130_fd_sc_hd__buf_1
X$5 VGND \$5 \$7 \$17 \$32 VPWR VPWR VGND sky130_fd_sc_hd__dfrtp_2
X$6 VPWR VGND \$7 VPWR \$19 \$6 VGND sky130_fd_sc_hd__nor2_2
X$7 VGND \$7 \$6 \$22 \$8 \$11 VPWR VPWR VGND sky130_fd_sc_hd__a22o_2
X$8 VGND \$21 \$6 \$17 \$22 VPWR VPWR VGND sky130_fd_sc_hd__dfrtp_2
X$9 VGND \$29 \$6 \$7 \$30 \$19 VPWR VPWR VGND sky130_fd_sc_hd__o2bb2a_2
X$10 VPWR VPWR \$7 \$43 \$6 VGND \$19 VGND sky130_fd_sc_hd__a21oi_2
X$11 VPWR VGND VPWR \$23 \$7 VGND sky130_fd_sc_hd__inv_2
X$12 VGND \$8 \$63 \$59 \$33 \$16 VPWR VPWR VGND sky130_fd_sc_hd__and4_2
X$13 VGND \$79 \$73 \$38 \$67 \$44 \$8 VPWR VPWR VGND sky130_fd_sc_hd__a311o_2
X$14 VPWR VGND VPWR \$8 \$11 VGND sky130_fd_sc_hd__inv_2
X$15 VPWR VPWR \$124 \$130 \$117 VGND \$8 VGND sky130_fd_sc_hd__a21oi_2
X$16 VPWR \$20 VPWR VGND \$8 \$16 VGND sky130_fd_sc_hd__or2_2
X$17 VGND \$40 \$95 \$89 \$8 \$11 VPWR VPWR VGND sky130_fd_sc_hd__a22o_2
X$18 VGND \$73 \$147 \$143 \$8 \$11 VPWR VPWR VGND sky130_fd_sc_hd__a22o_2
X$19 VGND \$67 \$61 \$62 \$8 \$11 VPWR VPWR VGND sky130_fd_sc_hd__a22o_2
X$20 VGND \$39 \$14 \$54 \$8 \$11 VPWR VPWR VGND sky130_fd_sc_hd__a22o_2
X$21 VGND \$63 \$33 \$57 \$11 \$8 VPWR VPWR VGND sky130_fd_sc_hd__a22o_2
X$22 VGND \$33 \$16 \$35 \$11 \$8 VPWR VPWR VGND sky130_fd_sc_hd__a22o_2
X$23 VGND \$9 \$41 \$17 \$18 VPWR VPWR VGND sky130_fd_sc_hd__dfrtp_2
X$24 VPWR \$9 VGND VPWR \$15 VGND sky130_fd_sc_hd__buf_1
X$25 VGND \$186 ext_trim[25] \$188 dco VPWR VPWR VGND sky130_fd_sc_hd__mux2_1
X$26 VGND \$11 \$39 \$40 \$44 \$46 \$12 VPWR VPWR VGND sky130_fd_sc_hd__o221a_2
X$27 VPWR \$32 VPWR VGND \$53 \$45 \$11 \$56 VGND sky130_fd_sc_hd__a31o_2
X$28 VGND \$38 \$73 \$56 \$67 \$11 VPWR VPWR VGND sky130_fd_sc_hd__and4_2
X$29 VGND \$11 \$41 \$47 \$41 VPWR \$47 VPWR VGND sky130_fd_sc_hd__a2bb2o_2
X$30 VGND \$11 \$73 \$117 \$38 \$67 \$106 VPWR VPWR VGND
+ sky130_fd_sc_hd__o221a_2
X$31 VPWR \$24 VPWR VGND \$12 \$56 VGND sky130_fd_sc_hd__or2_2
X$32 VGND \$58 \$13 \$48 \$58 \$13 VPWR VPWR VGND sky130_fd_sc_hd__o2bb2ai_2
X$33 VGND \$13 \$14 \$39 \$14 \$39 VPWR VPWR VGND sky130_fd_sc_hd__o2bb2a_2
X$34 VGND \$58 \$39 \$25 \$13 \$14 VPWR VPWR VGND sky130_fd_sc_hd__a22o_2
X$35 VGND \$55 \$14 \$17 \$54 VPWR VPWR VGND sky130_fd_sc_hd__dfrtp_2
X$36 VPWR \$21 VGND VPWR \$15 VGND sky130_fd_sc_hd__buf_1
X$37 VPWR VGND dco VPWR \$15 \$171 VGND sky130_fd_sc_hd__nor2_2
X$38 VGND \$15 \$16 \$17 \$20 VPWR VPWR VGND sky130_fd_sc_hd__dfrtp_2
X$39 VPWR \$126 VGND VPWR \$15 VGND sky130_fd_sc_hd__buf_1
X$40 VPWR \$138 VGND VPWR \$15 VGND sky130_fd_sc_hd__buf_1
X$41 VPWR \$55 VGND VPWR \$15 VGND sky130_fd_sc_hd__buf_1
X$42 VPWR \$80 VGND VPWR \$15 VGND sky130_fd_sc_hd__buf_1
X$43 VPWR \$26 VGND VPWR \$15 VGND sky130_fd_sc_hd__buf_1
X$44 VPWR \$122 VGND VPWR \$15 VGND sky130_fd_sc_hd__buf_1
X$45 VPWR \$101 VGND VPWR \$15 VGND sky130_fd_sc_hd__buf_1
X$46 VPWR \$64 VGND VPWR \$15 VGND sky130_fd_sc_hd__buf_1
X$47 VPWR \$28 VGND VPWR \$15 VGND sky130_fd_sc_hd__buf_1
X$48 VPWR \$152 VGND VPWR \$15 VGND sky130_fd_sc_hd__buf_1
X$49 VPWR \$165 VGND VPWR \$15 VGND sky130_fd_sc_hd__buf_1
X$50 VPWR \$111 VGND VPWR \$15 VGND sky130_fd_sc_hd__buf_1
X$51 VPWR \$94 VGND VPWR \$15 VGND sky130_fd_sc_hd__buf_1
X$52 VPWR \$34 VGND VPWR \$15 VGND sky130_fd_sc_hd__buf_1
X$53 VPWR \$81 VGND VPWR \$15 VGND sky130_fd_sc_hd__buf_1
X$54 VPWR \$85 VGND VPWR \$15 VGND sky130_fd_sc_hd__buf_1
X$55 VPWR \$66 VGND VPWR \$15 VGND sky130_fd_sc_hd__buf_1
X$56 VPWR \$65 VGND VPWR \$15 VGND sky130_fd_sc_hd__buf_1
X$57 VPWR \$139 VGND VPWR \$15 VGND sky130_fd_sc_hd__buf_1
X$58 VGND \$17 \$153 VPWR VPWR VGND sky130_fd_sc_hd__clkinv_8
X$59 VGND \$80 \$95 \$17 \$89 VPWR VPWR VGND sky130_fd_sc_hd__dfrtp_2
X$60 VGND \$152 \$168 \$17 \$163 VPWR VPWR VGND sky130_fd_sc_hd__dfrtp_2
X$61 VGND \$165 \$147 \$17 \$143 VPWR VPWR VGND sky130_fd_sc_hd__dfrtp_2
X$62 VGND \$26 \$39 \$17 \$24 VPWR VPWR VGND sky130_fd_sc_hd__dfrtp_2
X$63 VGND \$138 \$204 \$17 \$142 VPWR VPWR VGND sky130_fd_sc_hd__dfrtp_2
X$64 VGND \$111 \$114 \$17 \$121 VPWR VPWR VGND sky130_fd_sc_hd__dfrtp_2
X$65 VGND \$85 \$76 \$17 \$108 VPWR VPWR VGND sky130_fd_sc_hd__dfrtp_2
X$66 VGND \$81 \$72 \$17 \$82 VPWR VPWR VGND sky130_fd_sc_hd__dfrtp_2
X$67 VGND \$139 \$73 \$17 \$130 VPWR VPWR VGND sky130_fd_sc_hd__dfrtp_2
X$68 VGND \$34 \$18 \$17 osc VPWR VPWR VGND sky130_fd_sc_hd__dfrtp_2
X$69 VGND \$94 \$40 \$17 \$79 VPWR VPWR VGND sky130_fd_sc_hd__dfrtp_2
X$70 VGND \$66 \$47 \$17 \$41 VPWR VPWR VGND sky130_fd_sc_hd__dfrtp_2
X$71 VGND \$65 \$61 \$17 \$62 VPWR VPWR VGND sky130_fd_sc_hd__dfrtp_2
X$72 VGND \$64 \$63 \$17 \$57 VPWR VPWR VGND sky130_fd_sc_hd__dfrtp_2
X$73 VGND \$122 \$132 \$17 \$131 VPWR VPWR VGND sky130_fd_sc_hd__dfrtp_2
X$74 VGND \$101 \$67 \$17 \$106 VPWR VPWR VGND sky130_fd_sc_hd__dfrtp_2
X$75 VGND \$28 \$33 \$17 \$35 VPWR VPWR VGND sky130_fd_sc_hd__dfrtp_2
X$76 VGND \$126 \$137 \$17 \$136 VPWR VPWR VGND sky130_fd_sc_hd__dfrtp_2
X$77 VPWR \$46 VGND \$44 \$53 VPWR \$23 VGND sky130_fd_sc_hd__o21ai_2
X$78 VPWR \$23 VPWR VGND \$45 \$46 \$44 VGND sky130_fd_sc_hd__or3_2
X$79 VGND \$88 \$25 \$43 \$25 VPWR \$43 VPWR VGND sky130_fd_sc_hd__a2bb2o_2
X$80 VPWR VGND VPWR \$30 \$25 VGND sky130_fd_sc_hd__inv_2
X$81 VPWR VGND VPWR VGND sky130_fd_sc_hd__decap_4
X$82 VPWR VGND VPWR VGND sky130_fd_sc_hd__decap_3
X$83 VPWR VGND VPWR VGND sky130_fd_sc_hd__fill_1
X$84 VPWR \$299 VPWR \$283 VGND \$314 VGND sky130_fd_sc_hd__einvp_2
X$85 VPWR \$315 VPWR \$311 VGND \$300 VGND sky130_fd_sc_hd__einvp_2
X$86 VPWR VPWR VGND VGND sky130_fd_sc_hd__decap_6
X$87 VPWR VGND sky130_fd_sc_hd__tapvpwrvgnd_1
X$88 VPWR VGND VPWR VGND sky130_fd_sc_hd__fill_1
X$89 VPWR \$289 VPWR \$301 VGND \$318 VGND sky130_fd_sc_hd__einvp_2
X$90 VPWR VGND VPWR VGND sky130_fd_sc_hd__decap_3
X$91 VPWR VPWR VGND \$318 \$302 VGND sky130_fd_sc_hd__clkinv_1
X$92 VPWR VPWR VGND VGND sky130_fd_sc_hd__decap_12
X$93 VPWR VGND VPWR VGND sky130_fd_sc_hd__fill_1
X$94 VPWR VGND sky130_fd_sc_hd__tapvpwrvgnd_1
X$95 VPWR \$316 VPWR \$303 VGND \$304 VGND sky130_fd_sc_hd__einvp_2
X$96 VPWR VGND VPWR VGND sky130_fd_sc_hd__decap_4
X$97 VPWR VGND VPWR VGND sky130_fd_sc_hd__fill_1
X$98 VGND \$297 ext_trim[7] \$229 dco VPWR VPWR VGND sky130_fd_sc_hd__mux2_1
X$99 VPWR VPWR VGND \$316 \$313 VGND sky130_fd_sc_hd__clkbuf_2
X$100 VPWR VGND VPWR VGND sky130_fd_sc_hd__fill_2
X$101 VPWR VGND sky130_fd_sc_hd__tapvpwrvgnd_1
X$102 VPWR VGND VPWR VGND sky130_fd_sc_hd__decap_3
X$103 VPWR \$317 VGND VPWR \$313 VGND sky130_fd_sc_hd__clkbuf_1
X$104 VGND \$311 ext_trim[16] \$285 dco VPWR VPWR VGND sky130_fd_sc_hd__mux2_1
X$105 VGND \$294 ext_trim[17] \$243 dco VPWR VPWR VGND sky130_fd_sc_hd__mux2_1
X$106 VPWR VGND VPWR VGND sky130_fd_sc_hd__decap_3
X$107 VPWR VGND sky130_fd_sc_hd__tapvpwrvgnd_1
X$108 VPWR VGND VPWR VGND sky130_fd_sc_hd__fill_1
X$109 VPWR \$291 VPWR \$260 VGND \$308 VGND sky130_fd_sc_hd__einvp_2
X$110 VPWR \$309 VPWR \$305 VGND \$320 VGND sky130_fd_sc_hd__einvp_2
X$111 VPWR VPWR VGND \$320 \$291 VGND sky130_fd_sc_hd__clkinv_1
X$112 VPWR VGND VPWR VGND sky130_fd_sc_hd__decap_4
X$113 VPWR VGND VPWR VGND sky130_fd_sc_hd__fill_1
X$114 VPWR VGND VPWR VGND sky130_fd_sc_hd__decap_3
X$115 VPWR VGND VPWR VGND sky130_fd_sc_hd__fill_2
X$116 VPWR VGND VPWR VGND sky130_fd_sc_hd__decap_3
X$117 VGND \$88 div[2] \$93 div[3] \$103 VPWR VPWR VGND sky130_fd_sc_hd__a22oi_2
X$118 VGND \$69 \$98 \$37 \$104 \$93 \$109 VPWR VPWR VGND
+ sky130_fd_sc_hd__o221a_2
X$119 VPWR VGND VPWR VGND sky130_fd_sc_hd__decap_4
X$120 VPWR VGND sky130_fd_sc_hd__tapvpwrvgnd_1
X$121 VGND \$103 \$105 \$29 \$105 VPWR \$29 VPWR VGND sky130_fd_sc_hd__a2bb2o_2
X$122 VPWR VGND VPWR VGND sky130_fd_sc_hd__fill_1
X$123 VPWR VGND sky130_fd_sc_hd__tapvpwrvgnd_1
X$124 VPWR VGND VPWR \$97 \$75 VGND sky130_fd_sc_hd__inv_2
X$125 VPWR VGND VPWR VGND sky130_fd_sc_hd__fill_1
X$126 VPWR VGND VPWR \$71 \$72 VGND sky130_fd_sc_hd__inv_2
X$127 VPWR VGND VPWR VGND sky130_fd_sc_hd__fill_1
X$128 VGND \$78 \$107 \$97 \$110 \$99 VPWR VPWR VGND sky130_fd_sc_hd__o31a_2
X$129 VPWR VGND VPWR VGND sky130_fd_sc_hd__fill_2
X$130 VGND \$68 \$108 \$100 \$78 \$84 VPWR VPWR VGND sky130_fd_sc_hd__o22ai_2
X$131 VGND \$100 \$71 \$86 \$71 VPWR \$86 VPWR VGND sky130_fd_sc_hd__a2bb2o_2
X$132 VPWR VGND VPWR VGND sky130_fd_sc_hd__fill_2
X$133 VPWR VPWR VGND VGND sky130_fd_sc_hd__decap_8
X$134 VPWR VGND VPWR VGND sky130_fd_sc_hd__fill_1
X$135 VPWR VGND VPWR VGND sky130_fd_sc_hd__decap_3
X$136 VPWR VGND VPWR VGND sky130_fd_sc_hd__decap_3
X$137 VPWR VGND VPWR VGND sky130_fd_sc_hd__decap_4
X$138 VPWR VGND VPWR VGND sky130_fd_sc_hd__fill_1
X$139 VPWR VPWR VGND \$118 \$116 \$112 \$113 VGND sky130_fd_sc_hd__a21bo_2
X$140 VPWR VGND VPWR \$104 \$91 VGND sky130_fd_sc_hd__inv_2
X$141 VPWR VGND VPWR VGND sky130_fd_sc_hd__decap_3
X$142 VGND \$113 \$61 \$67 \$29 \$92 VPWR VPWR VGND sky130_fd_sc_hd__o2bb2a_2
X$143 VPWR VGND \$67 VPWR \$92 \$61 VGND sky130_fd_sc_hd__nor2_2
X$144 VPWR VGND VPWR VGND sky130_fd_sc_hd__fill_1
X$145 VPWR VPWR \$117 \$38 VGND \$67 VGND sky130_fd_sc_hd__nand2_2
X$146 VPWR VGND VPWR VGND sky130_fd_sc_hd__fill_2
X$147 VPWR VGND sky130_fd_sc_hd__tapvpwrvgnd_1
X$148 VPWR VGND VPWR VGND sky130_fd_sc_hd__decap_3
X$149 VPWR VGND VPWR \$74 \$95 VGND sky130_fd_sc_hd__inv_2
X$150 VPWR VGND VPWR VGND sky130_fd_sc_hd__decap_4
X$151 VPWR VGND VPWR VGND sky130_fd_sc_hd__fill_1
X$152 VPWR VGND VPWR \$68 \$78 VGND sky130_fd_sc_hd__inv_2
X$153 VPWR VPWR VGND VGND sky130_fd_sc_hd__decap_8
X$154 VPWR VGND VPWR VGND sky130_fd_sc_hd__fill_1
X$155 VGND \$119 \$107 \$75 \$97 \$114 VPWR VPWR VGND sky130_fd_sc_hd__o22a_2
X$156 VPWR VGND VPWR \$115 \$119 VGND sky130_fd_sc_hd__inv_2
X$157 VPWR VGND VPWR VGND sky130_fd_sc_hd__decap_4
X$158 VPWR \$120 VPWR VGND \$110 \$84 \$71 VGND sky130_fd_sc_hd__or3_2
X$159 VGND \$123 \$71 \$86 \$75 \$84 VPWR VPWR VGND sky130_fd_sc_hd__o22a_2
X$160 VPWR VGND sky130_fd_sc_hd__tapvpwrvgnd_1
X$161 VPWR VGND VPWR VGND sky130_fd_sc_hd__fill_1
X$162 VPWR VGND VPWR VGND sky130_fd_sc_hd__fill_1
X$163 VPWR VGND VPWR VGND sky130_fd_sc_hd__decap_3
X$164 VPWR VGND VPWR VGND sky130_fd_sc_hd__decap_3
X$165 VPWR VGND VPWR VGND sky130_fd_sc_hd__decap_3
X$166 VPWR VGND VPWR VGND sky130_fd_sc_hd__fill_2
X$167 VPWR VGND VPWR VGND sky130_fd_sc_hd__fill_1
X$168 VGND \$284 \$283 \$299 VPWR VPWR VGND sky130_fd_sc_hd__einvn_8
X$169 VPWR VPWR VGND \$314 \$315 VGND sky130_fd_sc_hd__clkinv_1
X$170 VGND \$284 \$315 \$311 VPWR VPWR VGND sky130_fd_sc_hd__einvn_4
X$171 VPWR VPWR VGND \$299 \$312 VGND sky130_fd_sc_hd__clkbuf_2
X$172 VPWR \$300 VGND VPWR \$284 VGND sky130_fd_sc_hd__clkbuf_1
X$173 VGND \$312 \$301 \$289 VPWR VPWR VGND sky130_fd_sc_hd__einvn_8
X$174 VPWR VGND VPWR VGND sky130_fd_sc_hd__decap_3
X$175 VPWR VGND sky130_fd_sc_hd__tapvpwrvgnd_1
X$176 VGND \$301 ext_trim[4] \$227 dco VPWR VPWR VGND sky130_fd_sc_hd__mux2_1
X$177 VPWR \$302 VPWR \$294 VGND \$295 VGND sky130_fd_sc_hd__einvp_2
X$178 VGND \$312 \$302 \$294 VPWR VPWR VGND sky130_fd_sc_hd__einvn_4
X$179 VPWR VPWR VGND \$289 \$252 VGND sky130_fd_sc_hd__clkbuf_2
X$180 VGND \$303 ext_trim[6] \$272 dco VPWR VPWR VGND sky130_fd_sc_hd__mux2_1
X$181 VPWR \$295 VGND VPWR \$312 VGND sky130_fd_sc_hd__clkbuf_1
X$182 VPWR VGND VPWR VGND sky130_fd_sc_hd__fill_1
X$183 VPWR VGND sky130_fd_sc_hd__tapvpwrvgnd_1
X$184 VGND \$273 \$303 \$316 VPWR VPWR VGND sky130_fd_sc_hd__einvn_8
X$185 VPWR \$290 VPWR \$281 VGND \$287 VGND sky130_fd_sc_hd__einvp_2
X$186 VPWR VPWR VGND \$304 \$290 VGND sky130_fd_sc_hd__clkinv_1
X$187 VGND \$305 ext_trim[8] \$258 dco VPWR VPWR VGND sky130_fd_sc_hd__mux2_1
X$188 VGND \$313 \$297 \$306 VPWR VPWR VGND sky130_fd_sc_hd__einvn_8
X$189 VPWR \$306 VPWR \$297 VGND \$288 VGND sky130_fd_sc_hd__einvp_2
X$190 VPWR VGND sky130_fd_sc_hd__tapvpwrvgnd_1
X$191 VPWR VGND VPWR VGND sky130_fd_sc_hd__fill_2
X$192 VPWR VPWR VGND \$288 \$310 VGND sky130_fd_sc_hd__clkinv_1
X$193 VGND \$307 ext_trim[20] \$230 dco VPWR VPWR VGND sky130_fd_sc_hd__mux2_1
X$194 VGND \$313 \$310 \$307 VPWR VPWR VGND sky130_fd_sc_hd__einvn_4
X$195 VPWR VGND VPWR VGND sky130_fd_sc_hd__fill_2
X$196 VGND \$281 ext_trim[19] \$278 dco VPWR VPWR VGND sky130_fd_sc_hd__mux2_1
X$197 VPWR \$310 VPWR \$307 VGND \$317 VGND sky130_fd_sc_hd__einvp_2
X$198 VPWR VGND VPWR VGND sky130_fd_sc_hd__decap_4
X$199 VPWR VGND VPWR VGND sky130_fd_sc_hd__fill_1
X$200 VPWR VGND sky130_fd_sc_hd__tapvpwrvgnd_1
X$201 VPWR VPWR VGND \$306 \$292 VGND sky130_fd_sc_hd__clkbuf_2
X$202 VGND \$292 \$291 \$260 VPWR VPWR VGND sky130_fd_sc_hd__einvn_4
X$203 VGND \$292 \$305 \$309 VPWR VPWR VGND sky130_fd_sc_hd__einvn_8
X$204 VPWR \$308 VGND VPWR \$292 VGND sky130_fd_sc_hd__clkbuf_1
X$205 VPWR VGND VPWR VGND sky130_fd_sc_hd__fill_2
X$206 VPWR VPWR VGND \$309 \$255 VGND sky130_fd_sc_hd__clkbuf_2
X$207 VPWR VGND VPWR VGND sky130_fd_sc_hd__fill_2
X$208 VPWR VGND VPWR VGND sky130_fd_sc_hd__fill_1
X$209 VPWR VGND VPWR VGND sky130_fd_sc_hd__decap_3
X$210 VPWR VGND VPWR VGND sky130_fd_sc_hd__decap_3
X$211 VPWR VGND VPWR VGND sky130_fd_sc_hd__decap_3
X$212 VPWR VGND VPWR VGND sky130_fd_sc_hd__decap_3
X$213 VGND \$283 ext_trim[3] \$236 dco VPWR VPWR VGND sky130_fd_sc_hd__mux2_1
X$214 VPWR VPWR VGND VGND sky130_fd_sc_hd__decap_6
X$215 VPWR \$247 VPWR \$242 VGND \$268 VGND sky130_fd_sc_hd__einvp_2
X$216 VPWR VGND VPWR VGND sky130_fd_sc_hd__decap_3
X$217 VPWR VPWR VGND \$247 \$284 VGND sky130_fd_sc_hd__clkbuf_2
X$218 VPWR VGND VPWR VGND sky130_fd_sc_hd__fill_1
X$219 VGND \$250 \$266 \$265 VPWR VPWR VGND sky130_fd_sc_hd__einvn_4
X$220 VPWR \$266 VPWR \$265 VGND \$256 VGND sky130_fd_sc_hd__einvp_2
X$221 VPWR VPWR VGND \$268 \$266 VGND sky130_fd_sc_hd__clkinv_1
X$222 VPWR VGND sky130_fd_sc_hd__tapvpwrvgnd_1
X$223 VPWR VPWR VGND VGND sky130_fd_sc_hd__decap_8
X$224 VPWR VGND VPWR VGND sky130_fd_sc_hd__fill_2
X$225 VGND \$251 ext_trim[5] \$267 dco VPWR VPWR VGND sky130_fd_sc_hd__mux2_1
X$226 VGND \$252 \$279 \$276 VPWR VPWR VGND sky130_fd_sc_hd__einvn_4
X$227 VPWR \$183 VPWR \$251 VGND \$257 VGND sky130_fd_sc_hd__einvp_2
X$228 VPWR \$271 VGND VPWR \$252 VGND sky130_fd_sc_hd__clkbuf_1
X$229 VPWR \$279 VPWR \$276 VGND \$271 VGND sky130_fd_sc_hd__einvp_2
X$230 VPWR VGND VPWR VGND sky130_fd_sc_hd__fill_2
X$231 VPWR \$272 VPWR VGND \$236 \$204 VGND sky130_fd_sc_hd__or2_2
X$232 VPWR VGND VPWR VGND sky130_fd_sc_hd__fill_1
X$233 VPWR VGND sky130_fd_sc_hd__tapvpwrvgnd_1
X$234 VPWR VPWR VGND \$183 \$273 VGND sky130_fd_sc_hd__clkbuf_2
X$235 VGND \$273 \$290 \$281 VPWR VPWR VGND sky130_fd_sc_hd__einvn_4
X$236 VPWR VGND VPWR VGND sky130_fd_sc_hd__fill_2
X$237 VGND \$270 ext_trim[9] \$228 dco VPWR VPWR VGND sky130_fd_sc_hd__mux2_1
X$238 VPWR \$287 VGND VPWR \$273 VGND sky130_fd_sc_hd__clkbuf_1
X$239 VPWR VGND VPWR VGND sky130_fd_sc_hd__decap_3
X$240 VPWR VGND VPWR VGND sky130_fd_sc_hd__fill_2
X$241 VPWR \$277 VPWR VGND \$236 \$197 VGND sky130_fd_sc_hd__or2_2
X$242 VGND \$225 ext_trim[10] \$277 dco VPWR VPWR VGND sky130_fd_sc_hd__mux2_1
X$243 VPWR VGND VPWR VGND sky130_fd_sc_hd__decap_3
X$244 VGND \$276 ext_trim[18] \$259 dco VPWR VPWR VGND sky130_fd_sc_hd__mux2_1
X$245 VPWR VGND VPWR VGND sky130_fd_sc_hd__fill_1
X$246 VPWR VGND sky130_fd_sc_hd__tapvpwrvgnd_1
X$247 VPWR VGND VPWR \$161 \$200 VGND sky130_fd_sc_hd__inv_2
X$248 VGND \$265 ext_trim[15] \$253 dco VPWR VPWR VGND sky130_fd_sc_hd__mux2_1
X$249 VPWR VGND VPWR VGND sky130_fd_sc_hd__decap_3
X$250 VPWR VPWR \$280 \$278 \$285 VGND VGND sky130_fd_sc_hd__and2_2
X$251 VPWR VGND VPWR VGND sky130_fd_sc_hd__fill_1
X$252 VGND \$253 \$107 \$200 \$232 \$263 \$254 VPWR VPWR VGND
+ sky130_fd_sc_hd__o311a_2
X$253 VGND \$280 \$201 \$120 \$114 VPWR VPWR VGND sky130_fd_sc_hd__mux2_1
X$254 VPWR \$107 VPWR VGND \$263 \$205 \$241 VGND sky130_fd_sc_hd__or3_2
X$255 VPWR VGND VPWR VGND sky130_fd_sc_hd__decap_3
X$256 VPWR VGND sky130_fd_sc_hd__tapvpwrvgnd_1
X$257 VPWR VPWR \$278 \$120 VGND \$107 VGND sky130_fd_sc_hd__nand2_2
X$258 VPWR VGND VPWR VGND sky130_fd_sc_hd__fill_1
X$259 VGND \$255 \$270 \$239 VPWR VPWR VGND sky130_fd_sc_hd__einvn_8
X$260 VPWR VGND VPWR VGND sky130_fd_sc_hd__fill_2
X$261 VPWR \$239 VPWR \$270 VGND \$244 VGND sky130_fd_sc_hd__einvp_2
X$262 VPWR \$234 VPWR \$245 VGND \$274 VGND sky130_fd_sc_hd__einvp_2
X$263 VPWR \$274 VGND VPWR \$255 VGND sky130_fd_sc_hd__clkbuf_1
X$264 VPWR VGND VPWR VGND sky130_fd_sc_hd__fill_2
X$265 VPWR VGND VPWR VGND sky130_fd_sc_hd__fill_1
X$266 VPWR VGND VPWR VGND sky130_fd_sc_hd__decap_3
X$267 VPWR VGND VPWR VGND sky130_fd_sc_hd__decap_3
X$268 VPWR VGND VPWR VGND sky130_fd_sc_hd__decap_3
X$269 VPWR VGND VPWR VGND sky130_fd_sc_hd__decap_3
X$270 VPWR VGND VPWR VGND sky130_fd_sc_hd__decap_4
X$271 VGND \$194 ext_trim[0] \$180 dco VPWR VPWR VGND sky130_fd_sc_hd__mux2_1
X$272 VGND \$202 \$194 \$195 VPWR VPWR VGND sky130_fd_sc_hd__einvn_8
X$273 VPWR VGND VPWR VGND sky130_fd_sc_hd__fill_1
X$274 VPWR \$195 VPWR \$194 VGND \$189 VGND sky130_fd_sc_hd__einvp_2
X$275 VPWR \$170 \$183 VPWR VGND VGND sky130_fd_sc_hd__clkinv_2
X$276 VPWR VPWR VGND \$189 \$184 VGND sky130_fd_sc_hd__clkinv_1
X$277 VGND \$202 \$184 \$191 VPWR VPWR VGND sky130_fd_sc_hd__einvn_4
X$278 VPWR VGND VPWR VGND sky130_fd_sc_hd__fill_1
X$279 VPWR VGND sky130_fd_sc_hd__tapvpwrvgnd_1
X$280 VPWR \$184 VPWR \$191 VGND \$190 VGND sky130_fd_sc_hd__einvp_2
X$281 VPWR \$196 VPWR VGND \$181 \$171 VGND sky130_fd_sc_hd__or2_2
X$282 VPWR VGND VPWR VGND sky130_fd_sc_hd__fill_2
X$283 VGND \$174 \$196 \$172 VPWR VPWR VGND sky130_fd_sc_hd__einvn_8
X$284 VPWR VPWR VGND \$172 \$202 VGND sky130_fd_sc_hd__clkbuf_2
X$285 VPWR \$172 VPWR \$181 VGND \$192 VGND sky130_fd_sc_hd__einvp_2
X$286 VPWR VGND VPWR VGND sky130_fd_sc_hd__fill_1
X$287 VGND \$174 \$185 \$186 VPWR VPWR VGND sky130_fd_sc_hd__einvn_4
X$288 VPWR VGND sky130_fd_sc_hd__tapvpwrvgnd_1
X$289 VPWR VPWR VGND \$192 \$185 VGND sky130_fd_sc_hd__clkinv_1
X$290 VPWR VGND VPWR VGND sky130_fd_sc_hd__decap_3
X$291 VGND \$191 ext_trim[13] \$203 dco VPWR VPWR VGND sky130_fd_sc_hd__mux2_1
X$292 VPWR \$185 VPWR \$186 VGND \$177 VGND sky130_fd_sc_hd__einvp_2
X$293 VPWR VGND VPWR VGND sky130_fd_sc_hd__decap_4
X$294 VPWR \$203 VPWR VGND \$204 \$168 \$132 \$114 VGND sky130_fd_sc_hd__a31o_2
X$295 VPWR VGND VPWR \$159 \$168 VGND sky130_fd_sc_hd__inv_2
X$296 VPWR VPWR VGND VGND sky130_fd_sc_hd__decap_6
X$297 VPWR \$200 VPWR VGND \$168 \$132 VGND sky130_fd_sc_hd__or2_2
X$298 VPWR VGND VPWR \$144 \$132 VGND sky130_fd_sc_hd__inv_2
X$299 VPWR VGND sky130_fd_sc_hd__tapvpwrvgnd_1
X$300 VGND \$188 \$197 \$169 \$200 \$114 \$201 VPWR VPWR VGND
+ sky130_fd_sc_hd__o311a_2
X$301 VPWR VGND \$197 VPWR \$173 \$169 VGND sky130_fd_sc_hd__nor2_2
X$302 VPWR \$180 VPWR VGND \$201 \$114 VGND sky130_fd_sc_hd__or2_2
X$303 VPWR VGND VPWR VGND sky130_fd_sc_hd__fill_2
X$304 VPWR VGND VPWR \$169 \$205 VGND sky130_fd_sc_hd__inv_2
X$305 VPWR VGND VPWR \$107 \$114 VGND sky130_fd_sc_hd__inv_2
X$306 VPWR VGND VPWR \$157 \$137 VGND sky130_fd_sc_hd__inv_2
X$307 VPWR VGND VPWR VGND sky130_fd_sc_hd__fill_1
X$308 VPWR \$174 VPWR \$206 VGND \$198 VGND sky130_fd_sc_hd__einvp_2
X$309 VPWR VGND VPWR VGND sky130_fd_sc_hd__decap_3
X$310 VPWR VPWR VGND \$198 \$182 VGND sky130_fd_sc_hd__clkinv_1
X$311 VPWR VGND sky130_fd_sc_hd__tapvpwrvgnd_1
X$312 VPWR \$175 VGND VPWR \$187 VGND sky130_fd_sc_hd__clkbuf_1
X$313 VGND \$187 \$206 \$174 VPWR VPWR VGND sky130_fd_sc_hd__einvn_8
X$314 VGND \$187 \$182 \$178 VPWR VPWR VGND sky130_fd_sc_hd__einvn_4
X$315 VPWR \$199 VPWR \$164 VGND \$193 VGND sky130_fd_sc_hd__einvp_2
X$316 VPWR \$193 VGND VPWR \$207 VGND sky130_fd_sc_hd__clkbuf_1
X$317 VPWR VGND VPWR VGND sky130_fd_sc_hd__fill_2
X$318 VPWR VGND VPWR VGND sky130_fd_sc_hd__fill_2
X$319 VPWR VGND VPWR VGND sky130_fd_sc_hd__decap_3
X$320 VPWR VGND VPWR VGND sky130_fd_sc_hd__decap_3
X$321 VPWR VGND VPWR VGND sky130_fd_sc_hd__decap_3
X$322 VPWR VGND VPWR VGND sky130_fd_sc_hd__decap_3
X$323 VPWR VPWR div[1] \$37 \$48 VGND \$50 VGND sky130_fd_sc_hd__a21oi_2
X$324 VPWR VGND VPWR \$52 div[0] VGND sky130_fd_sc_hd__inv_2
X$325 VPWR VGND VPWR \$51 \$42 VGND sky130_fd_sc_hd__inv_2
X$326 VPWR VGND sky130_fd_sc_hd__tapvpwrvgnd_1
X$327 VPWR VGND VPWR VGND sky130_fd_sc_hd__fill_1
X$328 VPWR VGND VPWR \$38 \$45 VGND sky130_fd_sc_hd__inv_2
X$329 VPWR VGND VPWR \$46 \$39 VGND sky130_fd_sc_hd__inv_2
X$330 VPWR VGND VPWR VGND sky130_fd_sc_hd__decap_3
X$331 VPWR VGND VPWR VGND sky130_fd_sc_hd__fill_2
X$332 VPWR VGND sky130_fd_sc_hd__tapvpwrvgnd_1
X$333 VPWR VGND VPWR VGND sky130_fd_sc_hd__decap_3
X$334 VPWR VGND VPWR VGND sky130_fd_sc_hd__fill_2
X$335 VPWR VGND VPWR VGND sky130_fd_sc_hd__fill_2
X$336 VPWR VGND VPWR VGND sky130_fd_sc_hd__fill_2
X$337 VPWR VGND VPWR VGND sky130_fd_sc_hd__decap_3
X$338 VPWR VGND VPWR VGND sky130_fd_sc_hd__decap_3
X$339 VPWR VGND VPWR VGND sky130_fd_sc_hd__fill_2
X$340 VGND \$60 div[0] \$51 \$48 div[1] \$50 VPWR VPWR VGND
+ sky130_fd_sc_hd__o221a_2
X$341 VPWR VPWR \$60 \$48 VGND div[1] VGND sky130_fd_sc_hd__nand2_2
X$342 VPWR VGND VPWR VGND sky130_fd_sc_hd__decap_3
X$343 VPWR VGND sky130_fd_sc_hd__tapvpwrvgnd_1
X$344 VPWR VGND VPWR VGND sky130_fd_sc_hd__decap_3
X$345 VPWR VGND sky130_fd_sc_hd__tapvpwrvgnd_1
X$346 VPWR VGND VPWR VGND sky130_fd_sc_hd__fill_2
X$347 VPWR VGND VPWR VGND sky130_fd_sc_hd__decap_3
X$348 VPWR VGND VPWR VGND sky130_fd_sc_hd__fill_1
X$349 VPWR VGND VPWR VGND sky130_fd_sc_hd__decap_3
X$350 VPWR VPWR VGND VGND sky130_fd_sc_hd__decap_6
X$351 VPWR VPWR VGND VGND sky130_fd_sc_hd__decap_6
X$352 VPWR VGND sky130_fd_sc_hd__tapvpwrvgnd_1
X$353 VPWR VPWR VGND VGND sky130_fd_sc_hd__decap_6
X$354 VPWR VPWR VGND VGND sky130_fd_sc_hd__decap_6
X$355 VPWR VGND VPWR VGND sky130_fd_sc_hd__fill_1
X$356 VPWR VGND sky130_fd_sc_hd__tapvpwrvgnd_1
X$357 VPWR VPWR VGND VGND sky130_fd_sc_hd__decap_8
X$358 VPWR VGND VPWR VGND sky130_fd_sc_hd__decap_3
X$359 VPWR VGND sky130_fd_sc_hd__tapvpwrvgnd_1
X$360 VPWR VPWR VGND VGND sky130_fd_sc_hd__decap_12
X$361 VPWR VPWR VGND VGND sky130_fd_sc_hd__decap_8
X$362 VPWR VGND VPWR VGND sky130_fd_sc_hd__fill_2
X$363 VPWR VGND sky130_fd_sc_hd__tapvpwrvgnd_1
X$364 VPWR VGND VPWR VGND sky130_fd_sc_hd__fill_2
X$365 VPWR VGND VPWR VGND sky130_fd_sc_hd__decap_3
X$366 VPWR VGND VPWR VGND sky130_fd_sc_hd__decap_3
X$367 VPWR VGND VPWR VGND sky130_fd_sc_hd__fill_2
X$368 VPWR VGND sky130_fd_sc_hd__tapvpwrvgnd_1
X$369 VPWR VGND VPWR VGND sky130_fd_sc_hd__fill_2
X$370 VPWR VGND sky130_fd_sc_hd__tapvpwrvgnd_1
X$371 VPWR VGND VPWR VGND sky130_fd_sc_hd__fill_2
X$372 VPWR VGND VPWR VGND sky130_fd_sc_hd__decap_3
X$373 VPWR VGND VPWR VGND sky130_fd_sc_hd__decap_3
X$374 VPWR VGND VPWR VGND sky130_fd_sc_hd__decap_3
X$375 VPWR VGND VPWR VGND sky130_fd_sc_hd__decap_3
X$376 VPWR VPWR VGND VGND sky130_fd_sc_hd__decap_8
X$377 VPWR VGND VPWR VGND sky130_fd_sc_hd__fill_1
X$378 VPWR VGND sky130_fd_sc_hd__tapvpwrvgnd_1
X$379 VPWR VGND VPWR VGND sky130_fd_sc_hd__decap_4
X$380 VPWR VPWR \$172 VGND \$171 \$167 VGND sky130_fd_sc_hd__einvp_1
X$381 VPWR \$153 \$172 VPWR VGND VGND sky130_fd_sc_hd__clkinv_2
X$382 VPWR VPWR VGND \$167 VGND sky130_fd_sc_hd__conb_1
X$383 VPWR VPWR VGND VGND sky130_fd_sc_hd__decap_6
X$384 VPWR VGND VPWR VGND sky130_fd_sc_hd__fill_1
X$385 VPWR VGND sky130_fd_sc_hd__tapvpwrvgnd_1
X$386 VPWR VGND VPWR VGND sky130_fd_sc_hd__decap_4
X$387 VPWR \$177 VGND VPWR \$174 VGND sky130_fd_sc_hd__clkbuf_1
X$388 VPWR VGND VPWR VGND sky130_fd_sc_hd__decap_3
X$389 VPWR VGND VPWR VGND sky130_fd_sc_hd__decap_3
X$390 VGND \$163 \$78 \$154 \$68 \$168 \$160 VPWR VPWR VGND
+ sky130_fd_sc_hd__a32o_2
X$391 VPWR \$159 VGND \$75 \$133 VPWR \$154 VGND sky130_fd_sc_hd__o21ai_2
X$392 VPWR VGND VPWR VGND sky130_fd_sc_hd__fill_2
X$393 VPWR VGND VPWR VGND sky130_fd_sc_hd__fill_2
X$394 VGND \$159 \$168 \$156 \$75 \$97 VPWR VPWR VGND sky130_fd_sc_hd__a22o_2
X$395 VPWR VPWR \$160 \$156 VGND \$155 VGND sky130_fd_sc_hd__nand2_2
X$396 VPWR VGND sky130_fd_sc_hd__tapvpwrvgnd_1
X$397 VGND \$127 \$156 \$150 \$155 \$161 \$75 VPWR VPWR VGND
+ sky130_fd_sc_hd__o32a_2
X$398 VPWR \$154 VPWR VGND \$156 \$155 VGND sky130_fd_sc_hd__or2_2
X$399 VGND \$155 \$173 \$151 \$123 \$169 \$75 VPWR VPWR VGND
+ sky130_fd_sc_hd__o32a_2
X$400 VPWR VGND VPWR VGND sky130_fd_sc_hd__fill_1
X$401 VGND \$157 \$137 \$151 \$75 \$97 VPWR VPWR VGND sky130_fd_sc_hd__a22o_2
X$402 VPWR VGND VPWR VGND sky130_fd_sc_hd__fill_2
X$403 VGND \$166 \$97 \$137 \$123 VPWR VPWR VGND sky130_fd_sc_hd__mux2_1
X$404 VPWR VGND VPWR VGND sky130_fd_sc_hd__fill_1
X$405 VPWR \$166 VPWR \$78 VGND \$75 \$157 \$141 VGND sky130_fd_sc_hd__o211a_2
X$406 VPWR VGND VPWR VGND sky130_fd_sc_hd__fill_1
X$407 VPWR VPWR \$145 \$151 VGND \$123 VGND sky130_fd_sc_hd__nand2_2
X$408 VPWR VGND sky130_fd_sc_hd__tapvpwrvgnd_1
X$409 VPWR \$182 VPWR \$178 VGND \$175 VGND sky130_fd_sc_hd__einvp_2
X$410 VPWR VPWR VGND VGND sky130_fd_sc_hd__decap_8
X$411 VGND \$178 ext_trim[24] \$179 dco VPWR VPWR VGND sky130_fd_sc_hd__mux2_1
X$412 VPWR VGND VPWR VGND sky130_fd_sc_hd__fill_2
X$413 VGND \$164 ext_trim[23] \$158 dco VPWR VPWR VGND sky130_fd_sc_hd__mux2_1
X$414 VPWR VGND VPWR VGND sky130_fd_sc_hd__fill_2
X$415 VPWR \$158 VGND VPWR \$114 VGND sky130_fd_sc_hd__buf_1
X$416 VPWR VGND VPWR VGND sky130_fd_sc_hd__fill_2
X$417 VPWR VGND VPWR VGND sky130_fd_sc_hd__decap_3
X$418 VPWR VGND VPWR VGND sky130_fd_sc_hd__decap_3
X$419 VPWR VGND VPWR VGND sky130_fd_sc_hd__decap_3
X$420 VPWR VGND VPWR VGND sky130_fd_sc_hd__decap_3
X$421 VPWR VGND VPWR VGND sky130_fd_sc_hd__decap_4
X$422 VPWR VGND VPWR VGND sky130_fd_sc_hd__fill_1
X$423 VGND \$220 ext_trim[1] \$213 dco VPWR VPWR VGND sky130_fd_sc_hd__mux2_1
X$424 VPWR VGND VPWR VGND sky130_fd_sc_hd__fill_1
X$425 VGND \$221 \$220 \$219 VPWR VPWR VGND sky130_fd_sc_hd__einvn_8
X$426 VPWR VGND VPWR VGND sky130_fd_sc_hd__decap_3
X$427 VPWR \$219 VPWR \$220 VGND \$214 VGND sky130_fd_sc_hd__einvp_2
X$428 VPWR VPWR VGND \$195 \$221 VGND sky130_fd_sc_hd__clkbuf_2
X$429 VPWR VGND VPWR VGND sky130_fd_sc_hd__fill_2
X$430 VPWR VGND VPWR VGND sky130_fd_sc_hd__fill_1
X$431 VGND \$221 \$226 \$224 VPWR VPWR VGND sky130_fd_sc_hd__einvn_4
X$432 VPWR VGND sky130_fd_sc_hd__tapvpwrvgnd_1
X$433 VPWR \$190 VGND VPWR \$202 VGND sky130_fd_sc_hd__clkbuf_1
X$434 VPWR VGND VPWR VGND sky130_fd_sc_hd__decap_3
X$435 VPWR \$222 VGND VPWR \$221 VGND sky130_fd_sc_hd__clkbuf_1
X$436 VPWR VGND VPWR VGND sky130_fd_sc_hd__decap_4
X$437 VPWR \$226 VPWR \$224 VGND \$222 VGND sky130_fd_sc_hd__einvp_2
X$438 VPWR VGND VPWR VGND sky130_fd_sc_hd__fill_1
X$439 VGND \$206 ext_trim[11] \$212 dco VPWR VPWR VGND sky130_fd_sc_hd__mux2_1
X$440 VGND \$227 \$215 \$204 \$114 \$168 \$144 VPWR VPWR VGND
+ sky130_fd_sc_hd__o41a_2
X$441 VPWR VGND VPWR VGND sky130_fd_sc_hd__fill_1
X$442 VGND \$212 \$215 \$197 \$114 \$168 \$144 VPWR VPWR VGND
+ sky130_fd_sc_hd__o41a_2
X$443 VPWR VGND sky130_fd_sc_hd__tapvpwrvgnd_1
X$444 VGND \$213 \$144 \$168 \$114 \$215 VPWR VPWR VGND sky130_fd_sc_hd__o31a_2
X$445 VPWR VPWR VGND VGND sky130_fd_sc_hd__decap_8
X$446 VGND \$228 \$215 \$205 \$114 \$168 \$144 VPWR VPWR VGND
+ sky130_fd_sc_hd__o41a_2
X$447 VPWR VGND VPWR VGND sky130_fd_sc_hd__decap_3
X$448 VPWR \$241 VPWR VGND \$159 \$132 VGND sky130_fd_sc_hd__or2_2
X$449 VPWR \$229 VPWR VGND \$205 \$168 \$132 \$114 VGND sky130_fd_sc_hd__a31o_2
X$450 VPWR VGND VPWR VGND sky130_fd_sc_hd__decap_4
X$451 VPWR VPWR VGND VGND sky130_fd_sc_hd__decap_6
X$452 VPWR VGND VPWR VGND sky130_fd_sc_hd__fill_1
X$453 VPWR VGND sky130_fd_sc_hd__tapvpwrvgnd_1
X$454 VPWR \$205 \$168 VGND \$144 VPWR \$223 \$107 VGND sky130_fd_sc_hd__or4_2
X$455 VGND \$230 \$144 \$168 \$204 \$179 VPWR VPWR VGND sky130_fd_sc_hd__o31a_2
X$456 VPWR \$216 VPWR VGND \$120 \$144 \$159 VGND sky130_fd_sc_hd__or3_2
X$457 VPWR \$216 VPWR VGND \$157 \$232 VGND sky130_fd_sc_hd__or2_2
X$458 VPWR VGND VPWR \$197 \$216 VGND sky130_fd_sc_hd__inv_2
X$459 VPWR VGND VPWR VGND sky130_fd_sc_hd__fill_1
X$460 VPWR \$205 VPWR VGND \$137 \$204 VGND sky130_fd_sc_hd__or2_2
X$461 VPWR \$114 \$200 \$241 VGND VPWR \$179 VGND sky130_fd_sc_hd__and3_2
X$462 VPWR \$201 VPWR VGND \$200 \$205 VGND sky130_fd_sc_hd__or2_2
X$463 VPWR VGND VPWR \$232 \$204 VGND sky130_fd_sc_hd__inv_2
X$464 VPWR VGND VPWR VGND sky130_fd_sc_hd__fill_1
X$465 VPWR VGND VPWR VGND sky130_fd_sc_hd__decap_3
X$466 VPWR VGND sky130_fd_sc_hd__tapvpwrvgnd_1
X$467 VGND \$207 \$225 \$217 VPWR VPWR VGND sky130_fd_sc_hd__einvn_8
X$468 VPWR VPWR VGND \$217 \$187 VGND sky130_fd_sc_hd__clkbuf_2
X$469 VPWR \$217 VPWR \$225 VGND \$218 VGND sky130_fd_sc_hd__einvp_2
X$470 VGND \$207 \$199 \$164 VPWR VPWR VGND sky130_fd_sc_hd__einvn_4
X$471 VPWR VPWR VGND \$218 \$199 VGND sky130_fd_sc_hd__clkinv_1
X$472 VPWR VGND VPWR VGND sky130_fd_sc_hd__fill_2
X$473 VPWR VGND VPWR VGND sky130_fd_sc_hd__decap_3
X$474 VPWR VGND VPWR VGND sky130_fd_sc_hd__decap_3
X$475 VPWR VGND VPWR VGND sky130_fd_sc_hd__decap_3
X$476 VPWR VGND VPWR VGND sky130_fd_sc_hd__decap_4
X$477 VPWR VGND VPWR VGND sky130_fd_sc_hd__fill_1
X$478 VGND \$69 \$77 \$70 \$50 \$42 \$52 VPWR VPWR VGND
+ sky130_fd_sc_hd__o2111ai_2
X$479 VPWR VGND VPWR VGND sky130_fd_sc_hd__decap_4
X$480 VPWR VGND VPWR VGND sky130_fd_sc_hd__fill_1
X$481 VPWR VGND sky130_fd_sc_hd__tapvpwrvgnd_1
X$482 VPWR VGND VPWR VGND sky130_fd_sc_hd__fill_1
X$483 VPWR VPWR \$44 \$42 \$74 VGND \$58 VGND sky130_fd_sc_hd__a21oi_2
X$484 VPWR VGND \$44 VPWR \$58 \$74 VGND sky130_fd_sc_hd__nor2_2
X$485 VPWR VGND VPWR \$44 \$40 VGND sky130_fd_sc_hd__inv_2
X$486 VPWR VPWR VGND VGND sky130_fd_sc_hd__decap_8
X$487 VPWR VGND sky130_fd_sc_hd__tapvpwrvgnd_1
X$488 VGND \$82 \$71 \$68 \$78 \$72 VPWR VPWR VGND sky130_fd_sc_hd__o22a_2
X$489 VPWR \$180 VPWR VGND \$83 \$76 \$72 VGND sky130_fd_sc_hd__or3_2