*SPICE netlist created from verilog structural netlist module digital_pll by vlog2Spice (qflow)
*This file may contain array delimiters, not for use in simulation.

.include sky130_fd_sc_hd_new.spice

.subckt digital_pll VGND VPWR dco enable osc resetb clockp[0]
+ clockp[1] div[0] div[1] div[2] div[3] div[4] ext_trim[0] ext_trim[1]
+ ext_trim[2] ext_trim[3] ext_trim[4] ext_trim[5] ext_trim[6] ext_trim[7] ext_trim[8] ext_trim[9]
+ ext_trim[10] ext_trim[11] ext_trim[12] ext_trim[13] ext_trim[14] ext_trim[15] ext_trim[16] ext_trim[17]
+ ext_trim[18] ext_trim[19] ext_trim[20] ext_trim[21] ext_trim[22] ext_trim[23] ext_trim[24] ext_trim[25]
+ 

XANTENNA__177__A div[0] VGND VGND VPWR VPWR sky130_fd_sc_hd__diode_2
XANTENNA__181__A enable VGND VGND VPWR VPWR sky130_fd_sc_hd__diode_2
XANTENNA__181__B resetb VGND VGND VPWR VPWR sky130_fd_sc_hd__diode_2
XANTENNA__182__A dco VGND VGND VPWR VPWR sky130_fd_sc_hd__diode_2
XANTENNA__201__A1 div[3] VGND VGND VPWR VPWR sky130_fd_sc_hd__diode_2
XANTENNA__201__B1 div[2] VGND VGND VPWR VPWR sky130_fd_sc_hd__diode_2
XANTENNA__202__A div[3] VGND VGND VPWR VPWR sky130_fd_sc_hd__diode_2
XANTENNA__204__A1 div[2] VGND VGND VPWR VPWR sky130_fd_sc_hd__diode_2
XANTENNA__207__A div[1] VGND VGND VPWR VPWR sky130_fd_sc_hd__diode_2
XANTENNA__210__A1 div[1] VGND VGND VPWR VPWR sky130_fd_sc_hd__diode_2
XANTENNA__210__B1 div[0] VGND VGND VPWR VPWR sky130_fd_sc_hd__diode_2
XANTENNA__211__A1 div[1] VGND VGND VPWR VPWR sky130_fd_sc_hd__diode_2
XANTENNA__216__A div[4] VGND VGND VPWR VPWR sky130_fd_sc_hd__diode_2
XANTENNA__218__B1 div[4] VGND VGND VPWR VPWR sky130_fd_sc_hd__diode_2
XANTENNA__330__A1 ext_trim[11] VGND VGND VPWR VPWR sky130_fd_sc_hd__diode_2
XANTENNA__330__S dco VGND VGND VPWR VPWR sky130_fd_sc_hd__diode_2
XANTENNA__331__A1 ext_trim[24] VGND VGND VPWR VPWR sky130_fd_sc_hd__diode_2
XANTENNA__331__S dco VGND VGND VPWR VPWR sky130_fd_sc_hd__diode_2
XANTENNA__332__A1 ext_trim[10] VGND VGND VPWR VPWR sky130_fd_sc_hd__diode_2
XANTENNA__332__S dco VGND VGND VPWR VPWR sky130_fd_sc_hd__diode_2
XANTENNA__333__A1 ext_trim[23] VGND VGND VPWR VPWR sky130_fd_sc_hd__diode_2
XANTENNA__333__S dco VGND VGND VPWR VPWR sky130_fd_sc_hd__diode_2
XANTENNA__334__A1 ext_trim[9] VGND VGND VPWR VPWR sky130_fd_sc_hd__diode_2
XANTENNA__334__S dco VGND VGND VPWR VPWR sky130_fd_sc_hd__diode_2
XANTENNA__335__A1 ext_trim[22] VGND VGND VPWR VPWR sky130_fd_sc_hd__diode_2
XANTENNA__335__S dco VGND VGND VPWR VPWR sky130_fd_sc_hd__diode_2
XANTENNA__336__A1 ext_trim[8] VGND VGND VPWR VPWR sky130_fd_sc_hd__diode_2
XANTENNA__336__S dco VGND VGND VPWR VPWR sky130_fd_sc_hd__diode_2
XANTENNA__337__A1 ext_trim[21] VGND VGND VPWR VPWR sky130_fd_sc_hd__diode_2
XANTENNA__337__S dco VGND VGND VPWR VPWR sky130_fd_sc_hd__diode_2
XANTENNA__338__A1 ext_trim[7] VGND VGND VPWR VPWR sky130_fd_sc_hd__diode_2
XANTENNA__338__S dco VGND VGND VPWR VPWR sky130_fd_sc_hd__diode_2
XANTENNA__339__A1 ext_trim[20] VGND VGND VPWR VPWR sky130_fd_sc_hd__diode_2
XANTENNA__339__S dco VGND VGND VPWR VPWR sky130_fd_sc_hd__diode_2
XANTENNA__340__A1 ext_trim[6] VGND VGND VPWR VPWR sky130_fd_sc_hd__diode_2
XANTENNA__340__S dco VGND VGND VPWR VPWR sky130_fd_sc_hd__diode_2
XANTENNA__341__A1 ext_trim[19] VGND VGND VPWR VPWR sky130_fd_sc_hd__diode_2
XANTENNA__341__S dco VGND VGND VPWR VPWR sky130_fd_sc_hd__diode_2
XANTENNA__342__A1 ext_trim[5] VGND VGND VPWR VPWR sky130_fd_sc_hd__diode_2
XANTENNA__342__S dco VGND VGND VPWR VPWR sky130_fd_sc_hd__diode_2
XANTENNA__343__A1 ext_trim[18] VGND VGND VPWR VPWR sky130_fd_sc_hd__diode_2
XANTENNA__343__S dco VGND VGND VPWR VPWR sky130_fd_sc_hd__diode_2
XANTENNA__344__A1 ext_trim[4] VGND VGND VPWR VPWR sky130_fd_sc_hd__diode_2
XANTENNA__344__S dco VGND VGND VPWR VPWR sky130_fd_sc_hd__diode_2
XANTENNA__345__A1 ext_trim[17] VGND VGND VPWR VPWR sky130_fd_sc_hd__diode_2
XANTENNA__345__S dco VGND VGND VPWR VPWR sky130_fd_sc_hd__diode_2
XANTENNA__346__A1 ext_trim[3] VGND VGND VPWR VPWR sky130_fd_sc_hd__diode_2
XANTENNA__346__S dco VGND VGND VPWR VPWR sky130_fd_sc_hd__diode_2
XANTENNA__347__A1 ext_trim[16] VGND VGND VPWR VPWR sky130_fd_sc_hd__diode_2
XANTENNA__347__S dco VGND VGND VPWR VPWR sky130_fd_sc_hd__diode_2
XANTENNA__348__A1 ext_trim[2] VGND VGND VPWR VPWR sky130_fd_sc_hd__diode_2
XANTENNA__348__S dco VGND VGND VPWR VPWR sky130_fd_sc_hd__diode_2
XANTENNA__349__A1 ext_trim[15] VGND VGND VPWR VPWR sky130_fd_sc_hd__diode_2
XANTENNA__349__S dco VGND VGND VPWR VPWR sky130_fd_sc_hd__diode_2
XANTENNA__350__A1 ext_trim[1] VGND VGND VPWR VPWR sky130_fd_sc_hd__diode_2
XANTENNA__350__S dco VGND VGND VPWR VPWR sky130_fd_sc_hd__diode_2
XANTENNA__351__A1 ext_trim[14] VGND VGND VPWR VPWR sky130_fd_sc_hd__diode_2
XANTENNA__351__S dco VGND VGND VPWR VPWR sky130_fd_sc_hd__diode_2
XANTENNA__352__A1 ext_trim[0] VGND VGND VPWR VPWR sky130_fd_sc_hd__diode_2
XANTENNA__352__S dco VGND VGND VPWR VPWR sky130_fd_sc_hd__diode_2
XANTENNA__353__A1 ext_trim[13] VGND VGND VPWR VPWR sky130_fd_sc_hd__diode_2
XANTENNA__353__S dco VGND VGND VPWR VPWR sky130_fd_sc_hd__diode_2
XANTENNA__354__A1 ext_trim[12] VGND VGND VPWR VPWR sky130_fd_sc_hd__diode_2
XANTENNA__354__S dco VGND VGND VPWR VPWR sky130_fd_sc_hd__diode_2
XANTENNA__355__A1 ext_trim[25] VGND VGND VPWR VPWR sky130_fd_sc_hd__diode_2
XANTENNA__355__S dco VGND VGND VPWR VPWR sky130_fd_sc_hd__diode_2
XANTENNA__356__D osc VGND VGND VPWR VPWR sky130_fd_sc_hd__diode_2
XFILLER_0_10 VGND VGND VPWR VPWR sky130_fd_sc_hd__decap_6
XFILLER_0_105 VGND VGND VPWR VPWR sky130_fd_sc_hd__decap_4
XFILLER_0_19 VGND VGND VPWR VPWR sky130_fd_sc_hd__decap_4
XFILLER_0_3 VGND VGND VPWR VPWR sky130_fd_sc_hd__fill_1
XFILLER_0_37 VGND VGND VPWR VPWR sky130_fd_sc_hd__decap_6
XFILLER_0_52 VGND VGND VPWR VPWR sky130_fd_sc_hd__fill_1
XFILLER_0_62 VGND VGND VPWR VPWR sky130_fd_sc_hd__decap_4
XFILLER_0_66 VGND VGND VPWR VPWR sky130_fd_sc_hd__fill_1
XFILLER_0_70 VGND VGND VPWR VPWR sky130_fd_sc_hd__decap_12
XFILLER_0_82 VGND VGND VPWR VPWR sky130_fd_sc_hd__fill_2
XFILLER_0_93 VGND VGND VPWR VPWR sky130_fd_sc_hd__decap_12
XFILLER_10_10 VGND VGND VPWR VPWR sky130_fd_sc_hd__decap_6
XFILLER_10_104 VGND VGND VPWR VPWR sky130_fd_sc_hd__fill_1
XFILLER_10_19 VGND VGND VPWR VPWR sky130_fd_sc_hd__decap_3
XFILLER_10_27 VGND VGND VPWR VPWR sky130_fd_sc_hd__fill_1
XFILLER_10_36 VGND VGND VPWR VPWR sky130_fd_sc_hd__decap_4
XFILLER_10_7 VGND VGND VPWR VPWR sky130_fd_sc_hd__fill_1
XFILLER_10_94 VGND VGND VPWR VPWR sky130_fd_sc_hd__fill_2
XFILLER_11_101 VGND VGND VPWR VPWR sky130_fd_sc_hd__fill_1
XFILLER_11_111 VGND VGND VPWR VPWR sky130_fd_sc_hd__fill_1
XFILLER_11_130 VGND VGND VPWR VPWR sky130_fd_sc_hd__fill_1
XFILLER_11_23 VGND VGND VPWR VPWR sky130_fd_sc_hd__fill_2
XFILLER_11_32 VGND VGND VPWR VPWR sky130_fd_sc_hd__fill_2
XFILLER_11_38 VGND VGND VPWR VPWR sky130_fd_sc_hd__decap_12
XFILLER_11_50 VGND VGND VPWR VPWR sky130_fd_sc_hd__decap_6
XFILLER_11_57 VGND VGND VPWR VPWR sky130_fd_sc_hd__fill_1
XFILLER_11_77 VGND VGND VPWR VPWR sky130_fd_sc_hd__fill_2
XFILLER_12_101 VGND VGND VPWR VPWR sky130_fd_sc_hd__fill_1
XFILLER_12_105 VGND VGND VPWR VPWR sky130_fd_sc_hd__fill_1
XFILLER_12_19 VGND VGND VPWR VPWR sky130_fd_sc_hd__fill_1
XFILLER_12_27 VGND VGND VPWR VPWR sky130_fd_sc_hd__fill_1
XFILLER_12_39 VGND VGND VPWR VPWR sky130_fd_sc_hd__fill_2
XFILLER_12_48 VGND VGND VPWR VPWR sky130_fd_sc_hd__fill_2
XFILLER_12_68 VGND VGND VPWR VPWR sky130_fd_sc_hd__fill_2
XFILLER_12_80 VGND VGND VPWR VPWR sky130_fd_sc_hd__fill_1
XFILLER_13_134 VGND VGND VPWR VPWR sky130_fd_sc_hd__fill_2
XFILLER_13_34 VGND VGND VPWR VPWR sky130_fd_sc_hd__fill_2
XFILLER_13_54 VGND VGND VPWR VPWR sky130_fd_sc_hd__fill_2
XFILLER_14_112 VGND VGND VPWR VPWR sky130_fd_sc_hd__fill_2
XFILLER_14_13 VGND VGND VPWR VPWR sky130_fd_sc_hd__fill_1
XFILLER_14_3 VGND VGND VPWR VPWR sky130_fd_sc_hd__fill_1
XFILLER_14_43 VGND VGND VPWR VPWR sky130_fd_sc_hd__decap_12
XFILLER_14_63 VGND VGND VPWR VPWR sky130_fd_sc_hd__decap_4
XFILLER_14_81 VGND VGND VPWR VPWR sky130_fd_sc_hd__decap_3
XFILLER_14_85 VGND VGND VPWR VPWR sky130_fd_sc_hd__fill_2
XFILLER_15_109 VGND VGND VPWR VPWR sky130_fd_sc_hd__decap_3
XFILLER_15_24 VGND VGND VPWR VPWR sky130_fd_sc_hd__fill_1
XFILLER_15_39 VGND VGND VPWR VPWR sky130_fd_sc_hd__fill_1
XFILLER_15_5 VGND VGND VPWR VPWR sky130_fd_sc_hd__fill_1
XFILLER_15_53 VGND VGND VPWR VPWR sky130_fd_sc_hd__decap_3
XFILLER_15_67 VGND VGND VPWR VPWR sky130_fd_sc_hd__decap_4
XFILLER_15_76 VGND VGND VPWR VPWR sky130_fd_sc_hd__fill_2
XFILLER_15_93 VGND VGND VPWR VPWR sky130_fd_sc_hd__decap_8
XFILLER_16_115 VGND VGND VPWR VPWR sky130_fd_sc_hd__decap_3
XFILLER_16_135 VGND VGND VPWR VPWR sky130_fd_sc_hd__fill_1
XFILLER_16_23 VGND VGND VPWR VPWR sky130_fd_sc_hd__decap_4
XFILLER_16_27 VGND VGND VPWR VPWR sky130_fd_sc_hd__fill_1
XFILLER_16_32 VGND VGND VPWR VPWR sky130_fd_sc_hd__decap_4
XFILLER_16_59 VGND VGND VPWR VPWR sky130_fd_sc_hd__decap_3
XFILLER_16_7 VGND VGND VPWR VPWR sky130_fd_sc_hd__decap_12
XFILLER_16_72 VGND VGND VPWR VPWR sky130_fd_sc_hd__fill_1
XFILLER_16_94 VGND VGND VPWR VPWR sky130_fd_sc_hd__decap_4
XFILLER_16_98 VGND VGND VPWR VPWR sky130_fd_sc_hd__fill_1
XFILLER_17_100 VGND VGND VPWR VPWR sky130_fd_sc_hd__fill_1
XFILLER_17_12 VGND VGND VPWR VPWR sky130_fd_sc_hd__decap_4
XFILLER_17_30 VGND VGND VPWR VPWR sky130_fd_sc_hd__decap_4
XFILLER_18_112 VGND VGND VPWR VPWR sky130_fd_sc_hd__fill_1
XFILLER_18_134 VGND VGND VPWR VPWR sky130_fd_sc_hd__fill_2
XFILLER_18_26 VGND VGND VPWR VPWR sky130_fd_sc_hd__fill_2
XFILLER_18_49 VGND VGND VPWR VPWR sky130_fd_sc_hd__fill_1
XFILLER_18_75 VGND VGND VPWR VPWR sky130_fd_sc_hd__fill_1
XFILLER_18_96 VGND VGND VPWR VPWR sky130_fd_sc_hd__fill_1
XFILLER_19_100 VGND VGND VPWR VPWR sky130_fd_sc_hd__fill_1
XFILLER_19_120 VGND VGND VPWR VPWR sky130_fd_sc_hd__fill_1
XFILLER_19_135 VGND VGND VPWR VPWR sky130_fd_sc_hd__fill_1
XFILLER_19_28 VGND VGND VPWR VPWR sky130_fd_sc_hd__fill_1
XFILLER_19_55 VGND VGND VPWR VPWR sky130_fd_sc_hd__fill_1
XFILLER_19_68 VGND VGND VPWR VPWR sky130_fd_sc_hd__fill_1
XFILLER_19_87 VGND VGND VPWR VPWR sky130_fd_sc_hd__fill_1
XFILLER_1_111 VGND VGND VPWR VPWR sky130_fd_sc_hd__fill_1
XFILLER_1_134 VGND VGND VPWR VPWR sky130_fd_sc_hd__fill_2
XFILLER_1_54 VGND VGND VPWR VPWR sky130_fd_sc_hd__fill_2
XFILLER_1_78 VGND VGND VPWR VPWR sky130_fd_sc_hd__fill_1
XFILLER_20_112 VGND VGND VPWR VPWR sky130_fd_sc_hd__fill_1
XFILLER_20_134 VGND VGND VPWR VPWR sky130_fd_sc_hd__fill_2
XFILLER_20_38 VGND VGND VPWR VPWR sky130_fd_sc_hd__fill_1
XFILLER_20_5 VGND VGND VPWR VPWR sky130_fd_sc_hd__decap_6
XFILLER_21_104 VGND VGND VPWR VPWR sky130_fd_sc_hd__fill_1
XFILLER_21_135 VGND VGND VPWR VPWR sky130_fd_sc_hd__fill_1
XFILLER_21_21 VGND VGND VPWR VPWR sky130_fd_sc_hd__fill_1
XFILLER_21_55 VGND VGND VPWR VPWR sky130_fd_sc_hd__fill_1
XFILLER_21_69 VGND VGND VPWR VPWR sky130_fd_sc_hd__fill_2
XFILLER_22_133 VGND VGND VPWR VPWR sky130_fd_sc_hd__decap_3
XFILLER_22_3 VGND VGND VPWR VPWR sky130_fd_sc_hd__decap_4
XFILLER_22_31 VGND VGND VPWR VPWR sky130_fd_sc_hd__decap_4
XFILLER_22_42 VGND VGND VPWR VPWR sky130_fd_sc_hd__fill_2
XFILLER_22_7 VGND VGND VPWR VPWR sky130_fd_sc_hd__fill_1
XFILLER_22_72 VGND VGND VPWR VPWR sky130_fd_sc_hd__decap_12
XFILLER_2_120 VGND VGND VPWR VPWR sky130_fd_sc_hd__fill_2
XFILLER_2_134 VGND VGND VPWR VPWR sky130_fd_sc_hd__fill_2
XFILLER_2_18 VGND VGND VPWR VPWR sky130_fd_sc_hd__fill_1
XFILLER_2_5 VGND VGND VPWR VPWR sky130_fd_sc_hd__fill_1
XFILLER_2_78 VGND VGND VPWR VPWR sky130_fd_sc_hd__decap_3
XFILLER_3_111 VGND VGND VPWR VPWR sky130_fd_sc_hd__fill_1
XFILLER_3_113 VGND VGND VPWR VPWR sky130_fd_sc_hd__fill_2
XFILLER_3_28 VGND VGND VPWR VPWR sky130_fd_sc_hd__fill_2
XFILLER_3_3 VGND VGND VPWR VPWR sky130_fd_sc_hd__fill_1
XFILLER_3_33 VGND VGND VPWR VPWR sky130_fd_sc_hd__decap_4
XFILLER_3_37 VGND VGND VPWR VPWR sky130_fd_sc_hd__fill_1
XFILLER_3_48 VGND VGND VPWR VPWR sky130_fd_sc_hd__fill_1
XFILLER_3_57 VGND VGND VPWR VPWR sky130_fd_sc_hd__fill_1
XFILLER_3_71 VGND VGND VPWR VPWR sky130_fd_sc_hd__fill_2
XFILLER_3_94 VGND VGND VPWR VPWR sky130_fd_sc_hd__fill_1
XFILLER_4_120 VGND VGND VPWR VPWR sky130_fd_sc_hd__decap_3
XFILLER_4_129 VGND VGND VPWR VPWR sky130_fd_sc_hd__decap_6
XFILLER_4_135 VGND VGND VPWR VPWR sky130_fd_sc_hd__fill_1
XFILLER_4_58 VGND VGND VPWR VPWR sky130_fd_sc_hd__fill_2
XFILLER_4_81 VGND VGND VPWR VPWR sky130_fd_sc_hd__decap_3
XFILLER_5_103 VGND VGND VPWR VPWR sky130_fd_sc_hd__fill_1
XFILLER_5_134 VGND VGND VPWR VPWR sky130_fd_sc_hd__fill_2
XFILLER_5_19 VGND VGND VPWR VPWR sky130_fd_sc_hd__fill_1
XFILLER_5_32 VGND VGND VPWR VPWR sky130_fd_sc_hd__decap_3
XFILLER_5_57 VGND VGND VPWR VPWR sky130_fd_sc_hd__fill_1
XFILLER_5_69 VGND VGND VPWR VPWR sky130_fd_sc_hd__fill_1
XFILLER_6_100 VGND VGND VPWR VPWR sky130_fd_sc_hd__decap_3
XFILLER_6_122 VGND VGND VPWR VPWR sky130_fd_sc_hd__decap_12
XFILLER_6_134 VGND VGND VPWR VPWR sky130_fd_sc_hd__fill_2
XFILLER_6_17 VGND VGND VPWR VPWR sky130_fd_sc_hd__fill_1
XFILLER_6_27 VGND VGND VPWR VPWR sky130_fd_sc_hd__fill_1
XFILLER_6_3 VGND VGND VPWR VPWR sky130_fd_sc_hd__fill_1
XFILLER_6_38 VGND VGND VPWR VPWR sky130_fd_sc_hd__decap_3
XFILLER_6_53 VGND VGND VPWR VPWR sky130_fd_sc_hd__decap_3
XFILLER_6_62 VGND VGND VPWR VPWR sky130_fd_sc_hd__decap_4
XFILLER_6_71 VGND VGND VPWR VPWR sky130_fd_sc_hd__decap_12
XFILLER_6_83 VGND VGND VPWR VPWR sky130_fd_sc_hd__fill_1
XFILLER_6_88 VGND VGND VPWR VPWR sky130_fd_sc_hd__fill_1
XFILLER_7_103 VGND VGND VPWR VPWR sky130_fd_sc_hd__fill_1
XFILLER_7_116 VGND VGND VPWR VPWR sky130_fd_sc_hd__decap_8
XFILLER_7_127 VGND VGND VPWR VPWR sky130_fd_sc_hd__decap_8
XFILLER_7_135 VGND VGND VPWR VPWR sky130_fd_sc_hd__fill_1
XFILLER_7_39 VGND VGND VPWR VPWR sky130_fd_sc_hd__decap_3
XFILLER_7_81 VGND VGND VPWR VPWR sky130_fd_sc_hd__fill_2
XFILLER_7_90 VGND VGND VPWR VPWR sky130_fd_sc_hd__decap_6
XFILLER_7_96 VGND VGND VPWR VPWR sky130_fd_sc_hd__fill_1
XFILLER_8_27 VGND VGND VPWR VPWR sky130_fd_sc_hd__fill_1
XFILLER_8_29 VGND VGND VPWR VPWR sky130_fd_sc_hd__fill_1
XFILLER_8_51 VGND VGND VPWR VPWR sky130_fd_sc_hd__decap_12
XFILLER_8_63 VGND VGND VPWR VPWR sky130_fd_sc_hd__decap_6
XFILLER_8_69 VGND VGND VPWR VPWR sky130_fd_sc_hd__fill_1
XFILLER_9_113 VGND VGND VPWR VPWR sky130_fd_sc_hd__fill_2
XFILLER_9_27 VGND VGND VPWR VPWR sky130_fd_sc_hd__fill_1
XFILLER_9_47 VGND VGND VPWR VPWR sky130_fd_sc_hd__fill_2
XFILLER_9_5 VGND VGND VPWR VPWR sky130_fd_sc_hd__fill_1
XFILLER_9_52 VGND VGND VPWR VPWR sky130_fd_sc_hd__fill_1
XFILLER_9_78 VGND VGND VPWR VPWR sky130_fd_sc_hd__fill_1
XFILLER_9_87 VGND VGND VPWR VPWR sky130_fd_sc_hd__decap_3
XPHY_0 VGND VGND VPWR VPWR sky130_fd_sc_hd__decap_3
XPHY_1 VGND VGND VPWR VPWR sky130_fd_sc_hd__decap_3
XPHY_10 VGND VGND VPWR VPWR sky130_fd_sc_hd__decap_3
XPHY_11 VGND VGND VPWR VPWR sky130_fd_sc_hd__decap_3
XPHY_12 VGND VGND VPWR VPWR sky130_fd_sc_hd__decap_3
XPHY_13 VGND VGND VPWR VPWR sky130_fd_sc_hd__decap_3
XPHY_14 VGND VGND VPWR VPWR sky130_fd_sc_hd__decap_3
XPHY_15 VGND VGND VPWR VPWR sky130_fd_sc_hd__decap_3
XPHY_16 VGND VGND VPWR VPWR sky130_fd_sc_hd__decap_3
XPHY_17 VGND VGND VPWR VPWR sky130_fd_sc_hd__decap_3
XPHY_18 VGND VGND VPWR VPWR sky130_fd_sc_hd__decap_3
XPHY_19 VGND VGND VPWR VPWR sky130_fd_sc_hd__decap_3
XPHY_2 VGND VGND VPWR VPWR sky130_fd_sc_hd__decap_3
XPHY_20 VGND VGND VPWR VPWR sky130_fd_sc_hd__decap_3
XPHY_21 VGND VGND VPWR VPWR sky130_fd_sc_hd__decap_3
XPHY_22 VGND VGND VPWR VPWR sky130_fd_sc_hd__decap_3
XPHY_23 VGND VGND VPWR VPWR sky130_fd_sc_hd__decap_3
XPHY_24 VGND VGND VPWR VPWR sky130_fd_sc_hd__decap_3
XPHY_25 VGND VGND VPWR VPWR sky130_fd_sc_hd__decap_3
XPHY_26 VGND VGND VPWR VPWR sky130_fd_sc_hd__decap_3
XPHY_27 VGND VGND VPWR VPWR sky130_fd_sc_hd__decap_3
XPHY_28 VGND VGND VPWR VPWR sky130_fd_sc_hd__decap_3
XPHY_29 VGND VGND VPWR VPWR sky130_fd_sc_hd__decap_3
XPHY_3 VGND VGND VPWR VPWR sky130_fd_sc_hd__decap_3
XPHY_30 VGND VGND VPWR VPWR sky130_fd_sc_hd__decap_3
XPHY_31 VGND VGND VPWR VPWR sky130_fd_sc_hd__decap_3
XPHY_32 VGND VGND VPWR VPWR sky130_fd_sc_hd__decap_3
XPHY_33 VGND VGND VPWR VPWR sky130_fd_sc_hd__decap_3
XPHY_34 VGND VGND VPWR VPWR sky130_fd_sc_hd__decap_3
XPHY_35 VGND VGND VPWR VPWR sky130_fd_sc_hd__decap_3
XPHY_36 VGND VGND VPWR VPWR sky130_fd_sc_hd__decap_3
XPHY_37 VGND VGND VPWR VPWR sky130_fd_sc_hd__decap_3
XPHY_38 VGND VGND VPWR VPWR sky130_fd_sc_hd__decap_3
XPHY_39 VGND VGND VPWR VPWR sky130_fd_sc_hd__decap_3
XPHY_4 VGND VGND VPWR VPWR sky130_fd_sc_hd__decap_3
XPHY_40 VGND VGND VPWR VPWR sky130_fd_sc_hd__decap_3
XPHY_41 VGND VGND VPWR VPWR sky130_fd_sc_hd__decap_3
XPHY_42 VGND VGND VPWR VPWR sky130_fd_sc_hd__decap_3
XPHY_43 VGND VGND VPWR VPWR sky130_fd_sc_hd__decap_3
XPHY_44 VGND VGND VPWR VPWR sky130_fd_sc_hd__decap_3
XPHY_45 VGND VGND VPWR VPWR sky130_fd_sc_hd__decap_3
XPHY_5 VGND VGND VPWR VPWR sky130_fd_sc_hd__decap_3
XPHY_6 VGND VGND VPWR VPWR sky130_fd_sc_hd__decap_3
XPHY_7 VGND VGND VPWR VPWR sky130_fd_sc_hd__decap_3
XPHY_8 VGND VGND VPWR VPWR sky130_fd_sc_hd__decap_3
XPHY_9 VGND VGND VPWR VPWR sky130_fd_sc_hd__decap_3
XTAP_46 VGND VPWR sky130_fd_sc_hd__tapvpwrvgnd_1
XTAP_47 VGND VPWR sky130_fd_sc_hd__tapvpwrvgnd_1
XTAP_48 VGND VPWR sky130_fd_sc_hd__tapvpwrvgnd_1
XTAP_49 VGND VPWR sky130_fd_sc_hd__tapvpwrvgnd_1
XTAP_50 VGND VPWR sky130_fd_sc_hd__tapvpwrvgnd_1
XTAP_51 VGND VPWR sky130_fd_sc_hd__tapvpwrvgnd_1
XTAP_52 VGND VPWR sky130_fd_sc_hd__tapvpwrvgnd_1
XTAP_53 VGND VPWR sky130_fd_sc_hd__tapvpwrvgnd_1
XTAP_54 VGND VPWR sky130_fd_sc_hd__tapvpwrvgnd_1
XTAP_55 VGND VPWR sky130_fd_sc_hd__tapvpwrvgnd_1
XTAP_56 VGND VPWR sky130_fd_sc_hd__tapvpwrvgnd_1
XTAP_57 VGND VPWR sky130_fd_sc_hd__tapvpwrvgnd_1
XTAP_58 VGND VPWR sky130_fd_sc_hd__tapvpwrvgnd_1
XTAP_59 VGND VPWR sky130_fd_sc_hd__tapvpwrvgnd_1
XTAP_60 VGND VPWR sky130_fd_sc_hd__tapvpwrvgnd_1
XTAP_61 VGND VPWR sky130_fd_sc_hd__tapvpwrvgnd_1
XTAP_62 VGND VPWR sky130_fd_sc_hd__tapvpwrvgnd_1
XTAP_63 VGND VPWR sky130_fd_sc_hd__tapvpwrvgnd_1
XTAP_64 VGND VPWR sky130_fd_sc_hd__tapvpwrvgnd_1
XTAP_65 VGND VPWR sky130_fd_sc_hd__tapvpwrvgnd_1
XTAP_66 VGND VPWR sky130_fd_sc_hd__tapvpwrvgnd_1
XTAP_67 VGND VPWR sky130_fd_sc_hd__tapvpwrvgnd_1
XTAP_68 VGND VPWR sky130_fd_sc_hd__tapvpwrvgnd_1
XTAP_69 VGND VPWR sky130_fd_sc_hd__tapvpwrvgnd_1
XTAP_70 VGND VPWR sky130_fd_sc_hd__tapvpwrvgnd_1
XTAP_71 VGND VPWR sky130_fd_sc_hd__tapvpwrvgnd_1
XTAP_72 VGND VPWR sky130_fd_sc_hd__tapvpwrvgnd_1
XTAP_73 VGND VPWR sky130_fd_sc_hd__tapvpwrvgnd_1
XTAP_74 VGND VPWR sky130_fd_sc_hd__tapvpwrvgnd_1
XTAP_75 VGND VPWR sky130_fd_sc_hd__tapvpwrvgnd_1
XTAP_76 VGND VPWR sky130_fd_sc_hd__tapvpwrvgnd_1
XTAP_77 VGND VPWR sky130_fd_sc_hd__tapvpwrvgnd_1
XTAP_78 VGND VPWR sky130_fd_sc_hd__tapvpwrvgnd_1
XTAP_79 VGND VPWR sky130_fd_sc_hd__tapvpwrvgnd_1
XTAP_80 VGND VPWR sky130_fd_sc_hd__tapvpwrvgnd_1
XTAP_81 VGND VPWR sky130_fd_sc_hd__tapvpwrvgnd_1
XTAP_82 VGND VPWR sky130_fd_sc_hd__tapvpwrvgnd_1
XTAP_83 VGND VPWR sky130_fd_sc_hd__tapvpwrvgnd_1
XTAP_84 VGND VPWR sky130_fd_sc_hd__tapvpwrvgnd_1
XTAP_85 VGND VPWR sky130_fd_sc_hd__tapvpwrvgnd_1
XTAP_86 VGND VPWR sky130_fd_sc_hd__tapvpwrvgnd_1
XTAP_87 VGND VPWR sky130_fd_sc_hd__tapvpwrvgnd_1
XTAP_88 VGND VPWR sky130_fd_sc_hd__tapvpwrvgnd_1
XTAP_89 VGND VPWR sky130_fd_sc_hd__tapvpwrvgnd_1
XTAP_90 VGND VPWR sky130_fd_sc_hd__tapvpwrvgnd_1
XTAP_91 VGND VPWR sky130_fd_sc_hd__tapvpwrvgnd_1
XTAP_92 VGND VPWR sky130_fd_sc_hd__tapvpwrvgnd_1
XTAP_93 VGND VPWR sky130_fd_sc_hd__tapvpwrvgnd_1
XTAP_94 VGND VPWR sky130_fd_sc_hd__tapvpwrvgnd_1
XTAP_95 VGND VPWR sky130_fd_sc_hd__tapvpwrvgnd_1
X_164_ \pll_control.count0[4]\ VGND VGND VPWR VPWR _072_ sky130_fd_sc_hd__inv_2
X_165_ \pll_control.count1[4]\ VGND VGND VPWR VPWR _073_ sky130_fd_sc_hd__inv_2
X_166_ \pll_control.count0[2]\ VGND VGND VPWR VPWR _074_ sky130_fd_sc_hd__inv_2
X_167_ \pll_control.count0[1]\ VGND VGND VPWR VPWR _075_ sky130_fd_sc_hd__inv_2
X_168_ \pll_control.count0[0]\ VGND VGND VPWR VPWR _076_ sky130_fd_sc_hd__inv_2
X_169_ \pll_control.count1[0]\ VGND VGND VPWR VPWR _077_ sky130_fd_sc_hd__inv_2
X_170_ \pll_control.tint[4]\ VGND VGND VPWR VPWR _078_ sky130_fd_sc_hd__inv_2
X_171_ \pll_control.tint[3]\ VGND VGND VPWR VPWR _079_ sky130_fd_sc_hd__inv_2
X_172_ \pll_control.tint[2]\ VGND VGND VPWR VPWR _080_ sky130_fd_sc_hd__inv_2
X_173_ \pll_control.tint[1]\ VGND VGND VPWR VPWR _081_ sky130_fd_sc_hd__inv_2
X_174_ \pll_control.tint[0]\ VGND VGND VPWR VPWR _082_ sky130_fd_sc_hd__inv_2
X_175_ \pll_control.tval[1]\ VGND VGND VPWR VPWR _083_ sky130_fd_sc_hd__inv_2
X_176_ \pll_control.tval[0]\ VGND VGND VPWR VPWR _084_ sky130_fd_sc_hd__inv_2
X_177_ div[0] VGND VGND VPWR VPWR _085_ sky130_fd_sc_hd__inv_2
X_178_ \pll_control.oscbuf[1]\ \pll_control.oscbuf[2]\ \pll_control.oscbuf[1]\ \pll_control.oscbuf[2]\ VGND VGND 
+ VPWR
+ VPWR _086_ sky130_fd_sc_hd__a2bb2o_2
X_179_ _086_ VGND VGND VPWR VPWR _087_ sky130_fd_sc_hd__inv_2
X_180_ \pll_control.count1[4]\ _086_ \pll_control.count0[4]\ _087_ VGND VGND 
+ VPWR
+ VPWR _071_ sky130_fd_sc_hd__a22o_2
X_181_ enable resetb VGND VGND VPWR VPWR 
+ \ringosc.iss.reset\
+ sky130_fd_sc_hd__nand2_2
X_182_ dco \ringosc.iss.reset\ VGND VGND VPWR VPWR 
+ _050_
+ sky130_fd_sc_hd__nor2_2
X_183_ \pll_control.count1[3]\ _086_ \pll_control.count0[3]\ _087_ VGND VGND 
+ VPWR
+ VPWR _070_ sky130_fd_sc_hd__a22o_2
X_184_ \pll_control.count1[2]\ _086_ \pll_control.count0[2]\ _087_ VGND VGND 
+ VPWR
+ VPWR _069_ sky130_fd_sc_hd__a22o_2
X_185_ \pll_control.count1[1]\ _086_ \pll_control.count0[1]\ _087_ VGND VGND 
+ VPWR
+ VPWR _068_ sky130_fd_sc_hd__a22o_2
X_186_ \pll_control.count1[0]\ _086_ \pll_control.count0[0]\ _087_ VGND VGND 
+ VPWR
+ VPWR _067_ sky130_fd_sc_hd__a22o_2
X_187_ \pll_control.prep[1]\ _087_ \pll_control.prep[2]\ _086_ VGND VGND 
+ VPWR
+ VPWR _066_ sky130_fd_sc_hd__a22o_2
X_188_ \pll_control.prep[1]\ _086_ \pll_control.prep[0]\ _087_ VGND VGND 
+ VPWR
+ VPWR _065_ sky130_fd_sc_hd__a22o_2
X_189_ \pll_control.prep[0]\ _087_ VGND VGND VPWR VPWR 
+ _064_
+ sky130_fd_sc_hd__or2_2
X_190_ \pll_control.count0[3]\ \pll_control.count1[3]\ VGND VGND VPWR VPWR 
+ _088_
+ sky130_fd_sc_hd__nor2_2
X_191_ \pll_control.count0[3]\ \pll_control.count1[3]\ _088_ VGND VGND VPWR 
+ VPWR
+ _089_ sky130_fd_sc_hd__a21o_2
X_192_ \pll_control.count0[2]\ \pll_control.count1[2]\ VGND VGND VPWR VPWR 
+ _090_
+ sky130_fd_sc_hd__nor2_2
X_193_ _076_ _077_ VGND VGND VPWR VPWR 
+ _091_
+ sky130_fd_sc_hd__nor2_2
X_194_ \pll_control.count0[1]\ \pll_control.count1[1]\ \pll_control.count0[1]\ \pll_control.count1[1]\ VGND VGND 
+ VPWR
+ VPWR _092_ sky130_fd_sc_hd__o2bb2a_2
X_195_ \pll_control.count0[1]\ \pll_control.count1[1]\ _091_ _092_ VGND VGND 
+ VPWR
+ VPWR _093_ sky130_fd_sc_hd__a22o_2
X_196_ _093_ VGND VGND VPWR VPWR _094_ sky130_fd_sc_hd__inv_2
X_197_ \pll_control.count0[2]\ \pll_control.count1[2]\ _090_ _094_ VGND VGND 
+ VPWR
+ VPWR _095_ sky130_fd_sc_hd__o2bb2a_2
X_198_ _089_ _095_ _089_ _095_ VGND VGND 
+ VPWR
+ VPWR _096_ sky130_fd_sc_hd__a2bb2o_2
X_199_ \pll_control.count0[2]\ \pll_control.count1[2]\ _090_ VGND VGND VPWR 
+ VPWR
+ _097_ sky130_fd_sc_hd__a21oi_2
X_200_ _093_ _097_ _093_ _097_ VGND VGND 
+ VPWR
+ VPWR _098_ sky130_fd_sc_hd__a2bb2o_2
X_201_ div[3] _096_ div[2] _098_ VGND VGND 
+ VPWR
+ VPWR _099_ sky130_fd_sc_hd__a22oi_2
X_202_ div[3] _096_ VGND VGND VPWR VPWR 
+ _100_
+ sky130_fd_sc_hd__or2_2
X_203_ _100_ VGND VGND VPWR VPWR _101_ sky130_fd_sc_hd__inv_2
X_204_ div[2] _098_ _100_ _099_ VGND VGND 
+ VPWR
+ VPWR _102_ sky130_fd_sc_hd__o211a_2
X_205_ _102_ VGND VGND VPWR VPWR _103_ sky130_fd_sc_hd__inv_2
X_206_ _091_ _092_ _091_ _092_ VGND VGND 
+ VPWR
+ VPWR _104_ sky130_fd_sc_hd__o2bb2ai_2
X_207_ div[1] _104_ VGND VGND VPWR VPWR 
+ _105_
+ sky130_fd_sc_hd__nand2_2
X_208_ _076_ _077_ _091_ VGND VGND VPWR 
+ VPWR
+ _106_ sky130_fd_sc_hd__a21oi_2
X_209_ _106_ VGND VGND VPWR VPWR _107_ sky130_fd_sc_hd__inv_2
X_210_ div[1] _104_ div[0] _107_ _105_ VGND 
+ VGND
+ VPWR VPWR _108_ sky130_fd_sc_hd__o221a_2
X_211_ div[1] _104_ _108_ VGND VGND VPWR 
+ VPWR
+ _109_ sky130_fd_sc_hd__a21oi_2
X_212_ \pll_control.count0[4]\ \pll_control.count1[4]\ _072_ _073_ VGND VGND 
+ VPWR
+ VPWR _110_ sky130_fd_sc_hd__a22o_2
X_213_ \pll_control.count0[3]\ \pll_control.count1[3]\ _088_ _095_ VGND VGND 
+ VPWR
+ VPWR _111_ sky130_fd_sc_hd__o2bb2a_2
X_214_ _110_ _111_ VGND VGND VPWR VPWR 
+ _112_
+ sky130_fd_sc_hd__or2_2
X_215_ _110_ _111_ _112_ VGND VGND VPWR 
+ VPWR
+ _113_ sky130_fd_sc_hd__a21bo_2
X_216_ div[4] _113_ VGND VGND VPWR VPWR 
+ _114_
+ sky130_fd_sc_hd__nand2_2
X_217_ _099_ _101_ _103_ _109_ _114_ VGND 
+ VGND
+ VPWR VPWR _115_ sky130_fd_sc_hd__o221a_2
X_218_ _072_ _073_ div[4] _113_ _112_ VGND 
+ VGND
+ VPWR VPWR _116_ sky130_fd_sc_hd__o221ai_2
X_219_ _115_ _116_ VGND VGND VPWR VPWR 
+ _117_
+ sky130_fd_sc_hd__or2_2
X_220_ _117_ VGND VGND VPWR VPWR _118_ sky130_fd_sc_hd__inv_2
X_221_ _081_ _082_ VGND VGND VPWR VPWR 
+ _119_
+ sky130_fd_sc_hd__or2_2
X_222_ _119_ VGND VGND VPWR VPWR _120_ sky130_fd_sc_hd__inv_2
X_223_ _079_ _080_ _119_ VGND VGND VPWR 
+ VPWR
+ _015_ sky130_fd_sc_hd__or3_2
X_224_ _083_ _084_ _015_ VGND VGND VPWR 
+ VPWR
+ _121_ sky130_fd_sc_hd__or3_2
X_225_ _085_ _106_ _108_ _102_ _114_ VGND 
+ VGND
+ VPWR VPWR _122_ sky130_fd_sc_hd__o2111ai_2
X_226_ \pll_control.prep[1]\ _087_ \pll_control.prep[2]\ \pll_control.prep[0]\ VGND VGND 
+ VPWR
+ VPWR _123_ sky130_fd_sc_hd__and4_2
X_227_ \pll_control.tint[1]\ \pll_control.tint[0]\ VGND VGND VPWR VPWR 
+ _124_
+ sky130_fd_sc_hd__or2_2
X_228_ _124_ VGND VGND VPWR VPWR _125_ sky130_fd_sc_hd__inv_2
X_229_ \pll_control.tint[3]\ \pll_control.tint[2]\ VGND VGND VPWR VPWR 
+ _126_
+ sky130_fd_sc_hd__or2_2
X_230_ _126_ VGND VGND VPWR VPWR _127_ sky130_fd_sc_hd__inv_2
X_231_ _124_ _126_ VGND VGND VPWR VPWR 
+ _000_
+ sky130_fd_sc_hd__or2_2
X_232_ \pll_control.tint[4]\ _000_ VGND VGND VPWR VPWR 
+ _001_
+ sky130_fd_sc_hd__or2_2
X_233_ \pll_control.tval[1]\ \pll_control.tval[0]\ _001_ VGND VGND VPWR 
+ VPWR
+ _128_ sky130_fd_sc_hd__or3_2
X_234_ _116_ _122_ _117_ _128_ _123_ VGND 
+ VGND
+ VPWR VPWR _129_ sky130_fd_sc_hd__o221a_2
X_235_ _078_ _118_ _121_ _129_ VGND VGND 
+ VPWR
+ VPWR _130_ sky130_fd_sc_hd__o31a_2
X_236_ _130_ VGND VGND VPWR VPWR _131_ sky130_fd_sc_hd__inv_2
X_237_ \pll_control.tval[1]\ _118_ _083_ _117_ VGND VGND 
+ VPWR
+ VPWR _132_ sky130_fd_sc_hd__a22o_2
X_238_ _083_ _117_ _084_ _132_ VGND VGND 
+ VPWR
+ VPWR _133_ sky130_fd_sc_hd__o22a_2
X_239_ _120_ _125_ VGND VGND VPWR VPWR 
+ _134_
+ sky130_fd_sc_hd__nor2_2
X_240_ \pll_control.tint[0]\ _118_ _082_ _117_ VGND VGND 
+ VPWR
+ VPWR _135_ sky130_fd_sc_hd__a22o_2
X_241_ _134_ _135_ _133_ _117_ _125_ VGND 
+ VGND
+ VPWR VPWR _136_ sky130_fd_sc_hd__o32a_2
X_242_ \pll_control.tint[2]\ _118_ _080_ _117_ VGND VGND 
+ VPWR
+ VPWR _137_ sky130_fd_sc_hd__a22o_2
X_243_ _079_ _118_ \pll_control.tint[3]\ _117_ VGND VGND 
+ VPWR
+ VPWR _138_ sky130_fd_sc_hd__o22a_2
X_244_ _138_ VGND VGND VPWR VPWR _139_ sky130_fd_sc_hd__inv_2
X_245_ _137_ _138_ _136_ _117_ _127_ VGND 
+ VGND
+ VPWR VPWR _140_ sky130_fd_sc_hd__o32a_2
X_246_ _140_ VGND VGND VPWR VPWR _141_ sky130_fd_sc_hd__inv_2
X_247_ \pll_control.tint[4]\ _118_ _078_ _117_ VGND VGND 
+ VPWR
+ VPWR _142_ sky130_fd_sc_hd__o22a_2
X_248_ _142_ VGND VGND VPWR VPWR _143_ sky130_fd_sc_hd__inv_2
X_249_ _141_ _142_ _140_ _143_ _131_ VGND 
+ VGND
+ VPWR VPWR _144_ sky130_fd_sc_hd__a221o_2
X_250_ _078_ _130_ _144_ VGND VGND VPWR 
+ VPWR
+ _063_ sky130_fd_sc_hd__o21ai_2
X_251_ _136_ _137_ VGND VGND VPWR VPWR 
+ _145_
+ sky130_fd_sc_hd__or2_2
X_252_ _080_ _117_ _145_ VGND VGND VPWR 
+ VPWR
+ _146_ sky130_fd_sc_hd__o21ai_2
X_253_ _146_ VGND VGND VPWR VPWR _147_ sky130_fd_sc_hd__inv_2
X_254_ _139_ _146_ _138_ _147_ _131_ VGND 
+ VGND
+ VPWR VPWR _148_ sky130_fd_sc_hd__a221o_2
X_255_ _079_ _130_ _148_ VGND VGND VPWR 
+ VPWR
+ _062_ sky130_fd_sc_hd__o21ai_2
X_256_ _136_ _137_ VGND VGND VPWR VPWR 
+ _149_
+ sky130_fd_sc_hd__nand2_2
X_257_ _130_ _145_ _149_ \pll_control.tint[2]\ _131_ VGND 
+ VGND
+ VPWR VPWR _061_ sky130_fd_sc_hd__a32o_2
X_258_ _133_ _135_ VGND VGND VPWR VPWR 
+ _150_
+ sky130_fd_sc_hd__or2_2
X_259_ \pll_control.tint[0]\ _118_ _133_ VGND VGND VPWR 
+ VPWR
+ _151_ sky130_fd_sc_hd__mux2_1
X_260_ _082_ _117_ _130_ _151_ VGND VGND 
+ VPWR
+ VPWR _152_ sky130_fd_sc_hd__o211a_2
X_261_ \pll_control.tint[1]\ _152_ \pll_control.tint[1]\ _152_ VGND VGND 
+ VPWR
+ VPWR _060_ sky130_fd_sc_hd__o2bb2a_2
X_262_ _133_ _135_ VGND VGND VPWR VPWR 
+ _153_
+ sky130_fd_sc_hd__nand2_2
X_263_ _130_ _150_ _153_ \pll_control.tint[0]\ _131_ VGND 
+ VGND
+ VPWR VPWR _059_ sky130_fd_sc_hd__a32o_2
X_264_ _084_ _132_ _084_ _132_ VGND VGND 
+ VPWR
+ VPWR _154_ sky130_fd_sc_hd__a2bb2o_2
X_265_ _083_ _130_ _131_ _154_ VGND VGND 
+ VPWR
+ VPWR _058_ sky130_fd_sc_hd__o22ai_2
X_266_ \pll_control.tval[0]\ _130_ _084_ _131_ VGND VGND 
+ VPWR
+ VPWR _057_ sky130_fd_sc_hd__o22a_2
X_267_ _075_ _076_ _074_ VGND VGND VPWR 
+ VPWR
+ _155_ sky130_fd_sc_hd__or3_2
X_268_ _155_ VGND VGND VPWR VPWR _156_ sky130_fd_sc_hd__inv_2
X_269_ \pll_control.count0[3]\ _156_ VGND VGND VPWR VPWR 
+ _157_
+ sky130_fd_sc_hd__nand2_2
X_270_ _072_ _157_ _087_ VGND VGND VPWR 
+ VPWR
+ _056_ sky130_fd_sc_hd__a21oi_2
X_271_ \pll_control.count0[3]\ _156_ \pll_control.count0[4]\ _157_ _086_ VGND 
+ VGND
+ VPWR VPWR _055_ sky130_fd_sc_hd__o221a_2
X_272_ \pll_control.count0[3]\ _156_ \pll_control.count0[4]\ _086_ VGND VGND 
+ VPWR
+ VPWR _158_ sky130_fd_sc_hd__and4_2
X_273_ _075_ _076_ _074_ VGND VGND VPWR 
+ VPWR
+ _159_ sky130_fd_sc_hd__o21ai_2
X_274_ _086_ _155_ _159_ _158_ VGND VGND 
+ VPWR
+ VPWR _054_ sky130_fd_sc_hd__a31o_2
X_275_ _075_ _076_ \pll_control.count0[1]\ \pll_control.count0[0]\ _086_ VGND 
+ VGND
+ VPWR VPWR _160_ sky130_fd_sc_hd__o221a_2
X_276_ _158_ _160_ VGND VGND VPWR VPWR 
+ _053_
+ sky130_fd_sc_hd__or2_2
X_277_ \pll_control.count0[3]\ _156_ \pll_control.count0[4]\ _076_ _087_ VGND 
+ VGND
+ VPWR VPWR _052_ sky130_fd_sc_hd__a311o_2
X_278_ \pll_control.tint[4]\ _126_ VGND VGND VPWR VPWR 
+ _004_
+ sky130_fd_sc_hd__or2_2
X_279_ \pll_control.tint[1]\ _004_ VGND VGND VPWR VPWR 
+ _007_
+ sky130_fd_sc_hd__or2_2
X_280_ \pll_control.tint[3]\ _080_ VGND VGND VPWR VPWR 
+ _161_
+ sky130_fd_sc_hd__or2_2
X_281_ _124_ _161_ \pll_control.tint[4]\ _004_ VGND VGND 
+ VPWR
+ VPWR _009_ sky130_fd_sc_hd__o31a_2