*
*  /home/marwan/ef/klayout_lvs/lvs/test_cases/housekeeping/housekeeping.spice : SPICE netlist translated from the VERILOG netlist : /home/marwan/ef/caravel/verilog/gl/housekeeping.v
*                                                                               on the 2021-12-22 17:55:04.249103
*
***************************************************************************************************************************************************************************************

.INCLUDE sky130_fd_sc_hd.spice 

.GLOBAL VDD VSS

.SUBCKT HOUSEKEEPING VGND VPWR DEBUG_IN DEBUG_MODE DEBUG_OEB DEBUG_OUT PAD_FLASH_CLK PAD_FLASH_CLK_OEB PAD_FLASH_CSB PAD_FLASH_CSB_OEB PAD_FLASH_IO0_DI PAD_FLASH_IO0_DO PAD_FLASH_IO0_IEB PAD_FLASH_IO0_OEB PAD_FLASH_IO1_DI PAD_FLASH_IO1_DO PAD_FLASH_IO1_IEB PAD_FLASH_IO1_OEB PLL_BYPASS PLL_DCO_ENA PLL_ENA PORB QSPI_ENABLED RESET SER_RX SER_TX SERIAL_CLOCK SERIAL_DATA_1 SERIAL_DATA_2 SERIAL_LOAD SERIAL_RESETN SPI_CSB SPI_ENABLED SPI_SCK SPI_SDI SPI_SDO SPI_SDOENB SPIMEMIO_FLASH_CLK SPIMEMIO_FLASH_CSB SPIMEMIO_FLASH_IO0_DI SPIMEMIO_FLASH_IO0_DO SPIMEMIO_FLASH_IO0_OEB SPIMEMIO_FLASH_IO1_DI SPIMEMIO_FLASH_IO1_DO SPIMEMIO_FLASH_IO1_OEB SPIMEMIO_FLASH_IO2_DI SPIMEMIO_FLASH_IO2_DO SPIMEMIO_FLASH_IO2_OEB SPIMEMIO_FLASH_IO3_DI SPIMEMIO_FLASH_IO3_DO SPIMEMIO_FLASH_IO3_OEB SRAM_RO_CLK SRAM_RO_CSB TRAP UART_ENABLED USER_CLOCK USR1_VCC_PWRGOOD USR1_VDD_PWRGOOD USR2_VCC_PWRGOOD USR2_VDD_PWRGOOD WB_ACK_O WB_CLK_I WB_CYC_I WB_RSTN_I WB_STB_I WB_WE_I IRQ[0] IRQ[1] IRQ[2] MASK_REV_IN[0] MASK_REV_IN[1] MASK_REV_IN[2] MASK_REV_IN[3] MASK_REV_IN[4] MASK_REV_IN[5] MASK_REV_IN[6] MASK_REV_IN[7] MASK_REV_IN[8] MASK_REV_IN[9] MASK_REV_IN[10] MASK_REV_IN[11] MASK_REV_IN[12] MASK_REV_IN[13] MASK_REV_IN[14] MASK_REV_IN[15] MASK_REV_IN[16] MASK_REV_IN[17] MASK_REV_IN[18] MASK_REV_IN[19] MASK_REV_IN[20] MASK_REV_IN[21] MASK_REV_IN[22] MASK_REV_IN[23] MASK_REV_IN[24] MASK_REV_IN[25] MASK_REV_IN[26] MASK_REV_IN[27] MASK_REV_IN[28] MASK_REV_IN[29] MASK_REV_IN[30] MASK_REV_IN[31] MGMT_GPIO_IN[0] MGMT_GPIO_IN[1] MGMT_GPIO_IN[2] MGMT_GPIO_IN[3] MGMT_GPIO_IN[4] MGMT_GPIO_IN[5] MGMT_GPIO_IN[6] MGMT_GPIO_IN[7] MGMT_GPIO_IN[8] MGMT_GPIO_IN[9] MGMT_GPIO_IN[10] MGMT_GPIO_IN[11] MGMT_GPIO_IN[12] MGMT_GPIO_IN[13] MGMT_GPIO_IN[14] MGMT_GPIO_IN[15] MGMT_GPIO_IN[16] MGMT_GPIO_IN[17] MGMT_GPIO_IN[18] MGMT_GPIO_IN[19] MGMT_GPIO_IN[20] MGMT_GPIO_IN[21] MGMT_GPIO_IN[22] MGMT_GPIO_IN[23] MGMT_GPIO_IN[24] MGMT_GPIO_IN[25] MGMT_GPIO_IN[26] MGMT_GPIO_IN[27] MGMT_GPIO_IN[28] MGMT_GPIO_IN[29] MGMT_GPIO_IN[30] MGMT_GPIO_IN[31] MGMT_GPIO_IN[32] MGMT_GPIO_IN[33] MGMT_GPIO_IN[34] MGMT_GPIO_IN[35] MGMT_GPIO_IN[36] MGMT_GPIO_IN[37] MGMT_GPIO_OEB[0] MGMT_GPIO_OEB[1] MGMT_GPIO_OEB[2] MGMT_GPIO_OEB[3] MGMT_GPIO_OEB[4] MGMT_GPIO_OEB[5] MGMT_GPIO_OEB[6] MGMT_GPIO_OEB[7] MGMT_GPIO_OEB[8] MGMT_GPIO_OEB[9] MGMT_GPIO_OEB[10] MGMT_GPIO_OEB[11] MGMT_GPIO_OEB[12] MGMT_GPIO_OEB[13] MGMT_GPIO_OEB[14] MGMT_GPIO_OEB[15] MGMT_GPIO_OEB[16] MGMT_GPIO_OEB[17] MGMT_GPIO_OEB[18] MGMT_GPIO_OEB[19] MGMT_GPIO_OEB[20] MGMT_GPIO_OEB[21] MGMT_GPIO_OEB[22] MGMT_GPIO_OEB[23] MGMT_GPIO_OEB[24] MGMT_GPIO_OEB[25] MGMT_GPIO_OEB[26] MGMT_GPIO_OEB[27] MGMT_GPIO_OEB[28] MGMT_GPIO_OEB[29] MGMT_GPIO_OEB[30] MGMT_GPIO_OEB[31] MGMT_GPIO_OEB[32] MGMT_GPIO_OEB[33] MGMT_GPIO_OEB[34] MGMT_GPIO_OEB[35] MGMT_GPIO_OEB[36] MGMT_GPIO_OEB[37] MGMT_GPIO_OUT[0] MGMT_GPIO_OUT[1] MGMT_GPIO_OUT[2] MGMT_GPIO_OUT[3] MGMT_GPIO_OUT[4] MGMT_GPIO_OUT[5] MGMT_GPIO_OUT[6] MGMT_GPIO_OUT[7] MGMT_GPIO_OUT[8] MGMT_GPIO_OUT[9] MGMT_GPIO_OUT[10] MGMT_GPIO_OUT[11] MGMT_GPIO_OUT[12] MGMT_GPIO_OUT[13] MGMT_GPIO_OUT[14] MGMT_GPIO_OUT[15] MGMT_GPIO_OUT[16] MGMT_GPIO_OUT[17] MGMT_GPIO_OUT[18] MGMT_GPIO_OUT[19] MGMT_GPIO_OUT[20] MGMT_GPIO_OUT[21] MGMT_GPIO_OUT[22] MGMT_GPIO_OUT[23] MGMT_GPIO_OUT[24] MGMT_GPIO_OUT[25] MGMT_GPIO_OUT[26] MGMT_GPIO_OUT[27] MGMT_GPIO_OUT[28] MGMT_GPIO_OUT[29] MGMT_GPIO_OUT[30] MGMT_GPIO_OUT[31] MGMT_GPIO_OUT[32] MGMT_GPIO_OUT[33] MGMT_GPIO_OUT[34] MGMT_GPIO_OUT[35] MGMT_GPIO_OUT[36] MGMT_GPIO_OUT[37] PLL90_SEL[0] PLL90_SEL[1] PLL90_SEL[2] PLL_DIV[0] PLL_DIV[1] PLL_DIV[2] PLL_DIV[3] PLL_DIV[4] PLL_SEL[0] PLL_SEL[1] PLL_SEL[2] PLL_TRIM[0] PLL_TRIM[1] PLL_TRIM[2] PLL_TRIM[3] PLL_TRIM[4] PLL_TRIM[5] PLL_TRIM[6] PLL_TRIM[7] PLL_TRIM[8] PLL_TRIM[9] PLL_TRIM[10] PLL_TRIM[11] PLL_TRIM[12] PLL_TRIM[13] PLL_TRIM[14] PLL_TRIM[15] PLL_TRIM[16] PLL_TRIM[17] PLL_TRIM[18] PLL_TRIM[19] PLL_TRIM[20] PLL_TRIM[21] PLL_TRIM[22] PLL_TRIM[23] PLL_TRIM[24] PLL_TRIM[25] PWR_CTRL_OUT[0] PWR_CTRL_OUT[1] PWR_CTRL_OUT[2] PWR_CTRL_OUT[3] SRAM_RO_ADDR[0] SRAM_RO_ADDR[1] SRAM_RO_ADDR[2] SRAM_RO_ADDR[3] SRAM_RO_ADDR[4] SRAM_RO_ADDR[5] SRAM_RO_ADDR[6] SRAM_RO_ADDR[7] SRAM_RO_DATA[0] SRAM_RO_DATA[1] SRAM_RO_DATA[2] SRAM_RO_DATA[3] SRAM_RO_DATA[4] SRAM_RO_DATA[5] SRAM_RO_DATA[6] SRAM_RO_DATA[7] SRAM_RO_DATA[8] SRAM_RO_DATA[9] SRAM_RO_DATA[10] SRAM_RO_DATA[11] SRAM_RO_DATA[12] SRAM_RO_DATA[13] SRAM_RO_DATA[14] SRAM_RO_DATA[15] SRAM_RO_DATA[16] SRAM_RO_DATA[17] SRAM_RO_DATA[18] SRAM_RO_DATA[19] SRAM_RO_DATA[20] SRAM_RO_DATA[21] SRAM_RO_DATA[22] SRAM_RO_DATA[23] SRAM_RO_DATA[24] SRAM_RO_DATA[25] SRAM_RO_DATA[26] SRAM_RO_DATA[27] SRAM_RO_DATA[28] SRAM_RO_DATA[29] SRAM_RO_DATA[30] SRAM_RO_DATA[31] WB_ADR_I[0] WB_ADR_I[1] WB_ADR_I[2] WB_ADR_I[3] WB_ADR_I[4] WB_ADR_I[5] WB_ADR_I[6] WB_ADR_I[7] WB_ADR_I[8] WB_ADR_I[9] WB_ADR_I[10] WB_ADR_I[11] WB_ADR_I[12] WB_ADR_I[13] WB_ADR_I[14] WB_ADR_I[15] WB_ADR_I[16] WB_ADR_I[17] WB_ADR_I[18] WB_ADR_I[19] WB_ADR_I[20] WB_ADR_I[21] WB_ADR_I[22] WB_ADR_I[23] WB_ADR_I[24] WB_ADR_I[25] WB_ADR_I[26] WB_ADR_I[27] WB_ADR_I[28] WB_ADR_I[29] WB_ADR_I[30] WB_ADR_I[31] WB_DAT_I[0] WB_DAT_I[1] WB_DAT_I[2] WB_DAT_I[3] WB_DAT_I[4] WB_DAT_I[5] WB_DAT_I[6] WB_DAT_I[7] WB_DAT_I[8] WB_DAT_I[9] WB_DAT_I[10] WB_DAT_I[11] WB_DAT_I[12] WB_DAT_I[13] WB_DAT_I[14] WB_DAT_I[15] WB_DAT_I[16] WB_DAT_I[17] WB_DAT_I[18] WB_DAT_I[19] WB_DAT_I[20] WB_DAT_I[21] WB_DAT_I[22] WB_DAT_I[23] WB_DAT_I[24] WB_DAT_I[25] WB_DAT_I[26] WB_DAT_I[27] WB_DAT_I[28] WB_DAT_I[29] WB_DAT_I[30] WB_DAT_I[31] WB_DAT_O[0] WB_DAT_O[1] WB_DAT_O[2] WB_DAT_O[3] WB_DAT_O[4] WB_DAT_O[5] WB_DAT_O[6] WB_DAT_O[7] WB_DAT_O[8] WB_DAT_O[9] WB_DAT_O[10] WB_DAT_O[11] WB_DAT_O[12] WB_DAT_O[13] WB_DAT_O[14] WB_DAT_O[15] WB_DAT_O[16] WB_DAT_O[17] WB_DAT_O[18] WB_DAT_O[19] WB_DAT_O[20] WB_DAT_O[21] WB_DAT_O[22] WB_DAT_O[23] WB_DAT_O[24] WB_DAT_O[25] WB_DAT_O[26] WB_DAT_O[27] WB_DAT_O[28] WB_DAT_O[29] WB_DAT_O[30] WB_DAT_O[31] WB_SEL_I[0] WB_SEL_I[1] WB_SEL_I[2] WB_SEL_I[3] 

XANTENNA_0 USER_CLOCK VGND VGND VPWR VPWR SKY130_FD_SC_HD__DIODE_2
XANTENNA_1 WB_CLK_I VGND VGND VPWR VPWR SKY130_FD_SC_HD__DIODE_2
XANTENNA_10 _0113_ VGND VGND VPWR VPWR SKY130_FD_SC_HD__DIODE_2
XANTENNA_100 NET312 VGND VGND VPWR VPWR SKY130_FD_SC_HD__DIODE_2
XANTENNA_101 NET36 VGND VGND VPWR VPWR SKY130_FD_SC_HD__DIODE_2
XANTENNA_102 NET36 VGND VGND VPWR VPWR SKY130_FD_SC_HD__DIODE_2
XANTENNA_103 NET37 VGND VGND VPWR VPWR SKY130_FD_SC_HD__DIODE_2
XANTENNA_104 NET38 VGND VGND VPWR VPWR SKY130_FD_SC_HD__DIODE_2
XANTENNA_105 NET67 VGND VGND VPWR VPWR SKY130_FD_SC_HD__DIODE_2
XANTENNA_106 NET77 VGND VGND VPWR VPWR SKY130_FD_SC_HD__DIODE_2
XANTENNA_107 NET77 VGND VGND VPWR VPWR SKY130_FD_SC_HD__DIODE_2
XANTENNA_108 NET77 VGND VGND VPWR VPWR SKY130_FD_SC_HD__DIODE_2
XANTENNA_109 NET77 VGND VGND VPWR VPWR SKY130_FD_SC_HD__DIODE_2
XANTENNA_11 _0115_ VGND VGND VPWR VPWR SKY130_FD_SC_HD__DIODE_2
XANTENNA_110 NET77 VGND VGND VPWR VPWR SKY130_FD_SC_HD__DIODE_2
XANTENNA_111 NET80 VGND VGND VPWR VPWR SKY130_FD_SC_HD__DIODE_2
XANTENNA_112 NET81 VGND VGND VPWR VPWR SKY130_FD_SC_HD__DIODE_2
XANTENNA_113 NET82 VGND VGND VPWR VPWR SKY130_FD_SC_HD__DIODE_2
XANTENNA_114 NET85 VGND VGND VPWR VPWR SKY130_FD_SC_HD__DIODE_2
XANTENNA_115 NET85 VGND VGND VPWR VPWR SKY130_FD_SC_HD__DIODE_2
XANTENNA_116 NET85 VGND VGND VPWR VPWR SKY130_FD_SC_HD__DIODE_2
XANTENNA_117 NET85 VGND VGND VPWR VPWR SKY130_FD_SC_HD__DIODE_2
XANTENNA_118 NET86 VGND VGND VPWR VPWR SKY130_FD_SC_HD__DIODE_2
XANTENNA_119 NET86 VGND VGND VPWR VPWR SKY130_FD_SC_HD__DIODE_2
XANTENNA_12 _0115_ VGND VGND VPWR VPWR SKY130_FD_SC_HD__DIODE_2
XANTENNA_120 NET86 VGND VGND VPWR VPWR SKY130_FD_SC_HD__DIODE_2
XANTENNA_121 NET86 VGND VGND VPWR VPWR SKY130_FD_SC_HD__DIODE_2
XANTENNA_122 NET86 VGND VGND VPWR VPWR SKY130_FD_SC_HD__DIODE_2
XANTENNA_123 NET86 VGND VGND VPWR VPWR SKY130_FD_SC_HD__DIODE_2
XANTENNA_124 NET86 VGND VGND VPWR VPWR SKY130_FD_SC_HD__DIODE_2
XANTENNA_125 NET86 VGND VGND VPWR VPWR SKY130_FD_SC_HD__DIODE_2
XANTENNA_126 NET86 VGND VGND VPWR VPWR SKY130_FD_SC_HD__DIODE_2
XANTENNA_127 NET86 VGND VGND VPWR VPWR SKY130_FD_SC_HD__DIODE_2
XANTENNA_128 NET86 VGND VGND VPWR VPWR SKY130_FD_SC_HD__DIODE_2
XANTENNA_129 NET86 VGND VGND VPWR VPWR SKY130_FD_SC_HD__DIODE_2
XANTENNA_13 _0115_ VGND VGND VPWR VPWR SKY130_FD_SC_HD__DIODE_2
XANTENNA_130 NET87 VGND VGND VPWR VPWR SKY130_FD_SC_HD__DIODE_2
XANTENNA_131 NET88 VGND VGND VPWR VPWR SKY130_FD_SC_HD__DIODE_2
XANTENNA_132 NET88 VGND VGND VPWR VPWR SKY130_FD_SC_HD__DIODE_2
XANTENNA_133 NET88 VGND VGND VPWR VPWR SKY130_FD_SC_HD__DIODE_2
XANTENNA_134 NET88 VGND VGND VPWR VPWR SKY130_FD_SC_HD__DIODE_2
XANTENNA_135 NET88 VGND VGND VPWR VPWR SKY130_FD_SC_HD__DIODE_2
XANTENNA_136 NET91 VGND VGND VPWR VPWR SKY130_FD_SC_HD__DIODE_2
XANTENNA_137 NET91 VGND VGND VPWR VPWR SKY130_FD_SC_HD__DIODE_2
XANTENNA_138 _0085_ VGND VGND VPWR VPWR SKY130_FD_SC_HD__DIODE_2
XANTENNA_139 _0093_ VGND VGND VPWR VPWR SKY130_FD_SC_HD__DIODE_2
XANTENNA_14 _0117_ VGND VGND VPWR VPWR SKY130_FD_SC_HD__DIODE_2
XANTENNA_140 _0107_ VGND VGND VPWR VPWR SKY130_FD_SC_HD__DIODE_2
XANTENNA_141 _0107_ VGND VGND VPWR VPWR SKY130_FD_SC_HD__DIODE_2
XANTENNA_142 _0109_ VGND VGND VPWR VPWR SKY130_FD_SC_HD__DIODE_2
XANTENNA_143 _0134_ VGND VGND VPWR VPWR SKY130_FD_SC_HD__DIODE_2
XANTENNA_144 _0144_ VGND VGND VPWR VPWR SKY130_FD_SC_HD__DIODE_2
XANTENNA_145 _0144_ VGND VGND VPWR VPWR SKY130_FD_SC_HD__DIODE_2
XANTENNA_146 _0144_ VGND VGND VPWR VPWR SKY130_FD_SC_HD__DIODE_2
XANTENNA_147 _0152_ VGND VGND VPWR VPWR SKY130_FD_SC_HD__DIODE_2
XANTENNA_148 _0152_ VGND VGND VPWR VPWR SKY130_FD_SC_HD__DIODE_2
XANTENNA_149 _1023_ VGND VGND VPWR VPWR SKY130_FD_SC_HD__DIODE_2
XANTENNA_15 _0119_ VGND VGND VPWR VPWR SKY130_FD_SC_HD__DIODE_2
XANTENNA_150 _1043_ VGND VGND VPWR VPWR SKY130_FD_SC_HD__DIODE_2
XANTENNA_151 _1106_ VGND VGND VPWR VPWR SKY130_FD_SC_HD__DIODE_2
XANTENNA_152 _1110_ VGND VGND VPWR VPWR SKY130_FD_SC_HD__DIODE_2
XANTENNA_153 _1181_ VGND VGND VPWR VPWR SKY130_FD_SC_HD__DIODE_2
XANTENNA_154 _1245_ VGND VGND VPWR VPWR SKY130_FD_SC_HD__DIODE_2
XANTENNA_155 _1245_ VGND VGND VPWR VPWR SKY130_FD_SC_HD__DIODE_2
XANTENNA_156 _1245_ VGND VGND VPWR VPWR SKY130_FD_SC_HD__DIODE_2
XANTENNA_157 _1275_ VGND VGND VPWR VPWR SKY130_FD_SC_HD__DIODE_2
XANTENNA_158 _1292_ VGND VGND VPWR VPWR SKY130_FD_SC_HD__DIODE_2
XANTENNA_159 _1292_ VGND VGND VPWR VPWR SKY130_FD_SC_HD__DIODE_2
XANTENNA_16 _0121_ VGND VGND VPWR VPWR SKY130_FD_SC_HD__DIODE_2
XANTENNA_160 _1293_ VGND VGND VPWR VPWR SKY130_FD_SC_HD__DIODE_2
XANTENNA_161 _2032_ VGND VGND VPWR VPWR SKY130_FD_SC_HD__DIODE_2
XANTENNA_162 _2045_ VGND VGND VPWR VPWR SKY130_FD_SC_HD__DIODE_2
XANTENNA_163 _2045_ VGND VGND VPWR VPWR SKY130_FD_SC_HD__DIODE_2
XANTENNA_164 _2239_ VGND VGND VPWR VPWR SKY130_FD_SC_HD__DIODE_2
XANTENNA_165 _2306_ VGND VGND VPWR VPWR SKY130_FD_SC_HD__DIODE_2
XANTENNA_166 _2338_ VGND VGND VPWR VPWR SKY130_FD_SC_HD__DIODE_2
XANTENNA_167 _2542_ VGND VGND VPWR VPWR SKY130_FD_SC_HD__DIODE_2
XANTENNA_168 _2554_ VGND VGND VPWR VPWR SKY130_FD_SC_HD__DIODE_2
XANTENNA_169 _2554_ VGND VGND VPWR VPWR SKY130_FD_SC_HD__DIODE_2
XANTENNA_17 _0123_ VGND VGND VPWR VPWR SKY130_FD_SC_HD__DIODE_2
XANTENNA_170 _2637_ VGND VGND VPWR VPWR SKY130_FD_SC_HD__DIODE_2
XANTENNA_171 _2664_ VGND VGND VPWR VPWR SKY130_FD_SC_HD__DIODE_2
XANTENNA_172 _3010_ VGND VGND VPWR VPWR SKY130_FD_SC_HD__DIODE_2
XANTENNA_173 _3010_ VGND VGND VPWR VPWR SKY130_FD_SC_HD__DIODE_2
XANTENNA_174 _3435_ VGND VGND VPWR VPWR SKY130_FD_SC_HD__DIODE_2
XANTENNA_175 _3600_ VGND VGND VPWR VPWR SKY130_FD_SC_HD__DIODE_2
XANTENNA_176 _4268_ VGND VGND VPWR VPWR SKY130_FD_SC_HD__DIODE_2
XANTENNA_177 _4421_ VGND VGND VPWR VPWR SKY130_FD_SC_HD__DIODE_2
XANTENNA_178 _4423_ VGND VGND VPWR VPWR SKY130_FD_SC_HD__DIODE_2
XANTENNA_179 \GPIO_CONFIGURE[19][6]  VGND VGND VPWR VPWR SKY130_FD_SC_HD__DIODE_2
XANTENNA_18 _0125_ VGND VGND VPWR VPWR SKY130_FD_SC_HD__DIODE_2
XANTENNA_180 \HKSP VGND VGND VPWR VPWR SKY130_FD_SC_HD__DIODE_2
XANTENNA_181 NET125 VGND VGND VPWR VPWR SKY130_FD_SC_HD__DIODE_2
XANTENNA_182 NET126 VGND VGND VPWR VPWR SKY130_FD_SC_HD__DIODE_2
XANTENNA_183 NET126 VGND VGND VPWR VPWR SKY130_FD_SC_HD__DIODE_2
XANTENNA_184 NET2 VGND VGND VPWR VPWR SKY130_FD_SC_HD__DIODE_2
XANTENNA_185 NET201 VGND VGND VPWR VPWR SKY130_FD_SC_HD__DIODE_2
XANTENNA_186 NET201 VGND VGND VPWR VPWR SKY130_FD_SC_HD__DIODE_2
XANTENNA_187 NET205 VGND VGND VPWR VPWR SKY130_FD_SC_HD__DIODE_2
XANTENNA_188 NET206 VGND VGND VPWR VPWR SKY130_FD_SC_HD__DIODE_2
XANTENNA_189 NET313 VGND VGND VPWR VPWR SKY130_FD_SC_HD__DIODE_2
XANTENNA_19 _0130_ VGND VGND VPWR VPWR SKY130_FD_SC_HD__DIODE_2
XANTENNA_190 NET313 VGND VGND VPWR VPWR SKY130_FD_SC_HD__DIODE_2
XANTENNA_191 NET313 VGND VGND VPWR VPWR SKY130_FD_SC_HD__DIODE_2
XANTENNA_192 NET313 VGND VGND VPWR VPWR SKY130_FD_SC_HD__DIODE_2
XANTENNA_193 NET313 VGND VGND VPWR VPWR SKY130_FD_SC_HD__DIODE_2
XANTENNA_194 NET313 VGND VGND VPWR VPWR SKY130_FD_SC_HD__DIODE_2
XANTENNA_195 NET313 VGND VGND VPWR VPWR SKY130_FD_SC_HD__DIODE_2
XANTENNA_196 NET313 VGND VGND VPWR VPWR SKY130_FD_SC_HD__DIODE_2
XANTENNA_197 NET78 VGND VGND VPWR VPWR SKY130_FD_SC_HD__DIODE_2
XANTENNA_198 NET83 VGND VGND VPWR VPWR SKY130_FD_SC_HD__DIODE_2
XANTENNA_199 NET83 VGND VGND VPWR VPWR SKY130_FD_SC_HD__DIODE_2
XANTENNA_2 _0079_ VGND VGND VPWR VPWR SKY130_FD_SC_HD__DIODE_2
XANTENNA_20 _0132_ VGND VGND VPWR VPWR SKY130_FD_SC_HD__DIODE_2
XANTENNA_200 NET83 VGND VGND VPWR VPWR SKY130_FD_SC_HD__DIODE_2
XANTENNA_201 NET83 VGND VGND VPWR VPWR SKY130_FD_SC_HD__DIODE_2
XANTENNA_202 NET83 VGND VGND VPWR VPWR SKY130_FD_SC_HD__DIODE_2
XANTENNA_203 NET83 VGND VGND VPWR VPWR SKY130_FD_SC_HD__DIODE_2
XANTENNA_204 NET83 VGND VGND VPWR VPWR SKY130_FD_SC_HD__DIODE_2
XANTENNA_205 NET83 VGND VGND VPWR VPWR SKY130_FD_SC_HD__DIODE_2
XANTENNA_206 NET83 VGND VGND VPWR VPWR SKY130_FD_SC_HD__DIODE_2
XANTENNA_207 NET83 VGND VGND VPWR VPWR SKY130_FD_SC_HD__DIODE_2
XANTENNA_208 NET83 VGND VGND VPWR VPWR SKY130_FD_SC_HD__DIODE_2
XANTENNA_209 NET83 VGND VGND VPWR VPWR SKY130_FD_SC_HD__DIODE_2
XANTENNA_21 _0142_ VGND VGND VPWR VPWR SKY130_FD_SC_HD__DIODE_2
XANTENNA_210 NET83 VGND VGND VPWR VPWR SKY130_FD_SC_HD__DIODE_2
XANTENNA_211 NET83 VGND VGND VPWR VPWR SKY130_FD_SC_HD__DIODE_2
XANTENNA_212 _1235_ VGND VGND VPWR VPWR SKY130_FD_SC_HD__DIODE_2
XANTENNA_213 _1861_ VGND VGND VPWR VPWR SKY130_FD_SC_HD__DIODE_2
XANTENNA_214 _2414_ VGND VGND VPWR VPWR SKY130_FD_SC_HD__DIODE_2
XANTENNA_215 _2416_ VGND VGND VPWR VPWR SKY130_FD_SC_HD__DIODE_2
XANTENNA_216 _4410_ VGND VGND VPWR VPWR SKY130_FD_SC_HD__DIODE_2
XANTENNA_217 NET368 VGND VGND VPWR VPWR SKY130_FD_SC_HD__DIODE_2
XANTENNA_218 NET307 VGND VGND VPWR VPWR SKY130_FD_SC_HD__DIODE_2
XANTENNA_22 _0142_ VGND VGND VPWR VPWR SKY130_FD_SC_HD__DIODE_2
XANTENNA_23 _0148_ VGND VGND VPWR VPWR SKY130_FD_SC_HD__DIODE_2
XANTENNA_24 _0150_ VGND VGND VPWR VPWR SKY130_FD_SC_HD__DIODE_2
XANTENNA_25 _1043_ VGND VGND VPWR VPWR SKY130_FD_SC_HD__DIODE_2
XANTENNA_26 _1047_ VGND VGND VPWR VPWR SKY130_FD_SC_HD__DIODE_2
XANTENNA_27 _1047_ VGND VGND VPWR VPWR SKY130_FD_SC_HD__DIODE_2
XANTENNA_28 _1047_ VGND VGND VPWR VPWR SKY130_FD_SC_HD__DIODE_2
XANTENNA_29 _1158_ VGND VGND VPWR VPWR SKY130_FD_SC_HD__DIODE_2
XANTENNA_3 _0083_ VGND VGND VPWR VPWR SKY130_FD_SC_HD__DIODE_2
XANTENNA_30 _1160_ VGND VGND VPWR VPWR SKY130_FD_SC_HD__DIODE_2
XANTENNA_31 _1160_ VGND VGND VPWR VPWR SKY130_FD_SC_HD__DIODE_2
XANTENNA_32 _1160_ VGND VGND VPWR VPWR SKY130_FD_SC_HD__DIODE_2
XANTENNA_33 _1160_ VGND VGND VPWR VPWR SKY130_FD_SC_HD__DIODE_2
XANTENNA_34 _1256_ VGND VGND VPWR VPWR SKY130_FD_SC_HD__DIODE_2
XANTENNA_35 _1267_ VGND VGND VPWR VPWR SKY130_FD_SC_HD__DIODE_2
XANTENNA_36 _1283_ VGND VGND VPWR VPWR SKY130_FD_SC_HD__DIODE_2
XANTENNA_37 _1311_ VGND VGND VPWR VPWR SKY130_FD_SC_HD__DIODE_2
XANTENNA_38 _1313_ VGND VGND VPWR VPWR SKY130_FD_SC_HD__DIODE_2
XANTENNA_39 _1320_ VGND VGND VPWR VPWR SKY130_FD_SC_HD__DIODE_2
XANTENNA_4 _0103_ VGND VGND VPWR VPWR SKY130_FD_SC_HD__DIODE_2
XANTENNA_40 _1321_ VGND VGND VPWR VPWR SKY130_FD_SC_HD__DIODE_2
XANTENNA_41 _1329_ VGND VGND VPWR VPWR SKY130_FD_SC_HD__DIODE_2
XANTENNA_42 _1329_ VGND VGND VPWR VPWR SKY130_FD_SC_HD__DIODE_2
XANTENNA_43 _1336_ VGND VGND VPWR VPWR SKY130_FD_SC_HD__DIODE_2
XANTENNA_44 _1345_ VGND VGND VPWR VPWR SKY130_FD_SC_HD__DIODE_2
XANTENNA_45 _1367_ VGND VGND VPWR VPWR SKY130_FD_SC_HD__DIODE_2
XANTENNA_46 _1387_ VGND VGND VPWR VPWR SKY130_FD_SC_HD__DIODE_2
XANTENNA_47 _1399_ VGND VGND VPWR VPWR SKY130_FD_SC_HD__DIODE_2
XANTENNA_48 _1411_ VGND VGND VPWR VPWR SKY130_FD_SC_HD__DIODE_2
XANTENNA_49 _1870_ VGND VGND VPWR VPWR SKY130_FD_SC_HD__DIODE_2
XANTENNA_5 _0103_ VGND VGND VPWR VPWR SKY130_FD_SC_HD__DIODE_2
XANTENNA_50 _1890_ VGND VGND VPWR VPWR SKY130_FD_SC_HD__DIODE_2
XANTENNA_51 _1895_ VGND VGND VPWR VPWR SKY130_FD_SC_HD__DIODE_2
XANTENNA_52 _1899_ VGND VGND VPWR VPWR SKY130_FD_SC_HD__DIODE_2
XANTENNA_53 _1905_ VGND VGND VPWR VPWR SKY130_FD_SC_HD__DIODE_2
XANTENNA_54 _1937_ VGND VGND VPWR VPWR SKY130_FD_SC_HD__DIODE_2
XANTENNA_55 _1988_ VGND VGND VPWR VPWR SKY130_FD_SC_HD__DIODE_2
XANTENNA_56 _1993_ VGND VGND VPWR VPWR SKY130_FD_SC_HD__DIODE_2
XANTENNA_57 _2033_ VGND VGND VPWR VPWR SKY130_FD_SC_HD__DIODE_2
XANTENNA_58 _2037_ VGND VGND VPWR VPWR SKY130_FD_SC_HD__DIODE_2
XANTENNA_59 _2052_ VGND VGND VPWR VPWR SKY130_FD_SC_HD__DIODE_2
XANTENNA_6 _0103_ VGND VGND VPWR VPWR SKY130_FD_SC_HD__DIODE_2
XANTENNA_60 _2060_ VGND VGND VPWR VPWR SKY130_FD_SC_HD__DIODE_2
XANTENNA_61 _2072_ VGND VGND VPWR VPWR SKY130_FD_SC_HD__DIODE_2
XANTENNA_62 _2072_ VGND VGND VPWR VPWR SKY130_FD_SC_HD__DIODE_2
XANTENNA_63 _2075_ VGND VGND VPWR VPWR SKY130_FD_SC_HD__DIODE_2
XANTENNA_64 _2224_ VGND VGND VPWR VPWR SKY130_FD_SC_HD__DIODE_2
XANTENNA_65 _2342_ VGND VGND VPWR VPWR SKY130_FD_SC_HD__DIODE_2
XANTENNA_66 _2413_ VGND VGND VPWR VPWR SKY130_FD_SC_HD__DIODE_2
XANTENNA_67 _2417_ VGND VGND VPWR VPWR SKY130_FD_SC_HD__DIODE_2
XANTENNA_68 _2440_ VGND VGND VPWR VPWR SKY130_FD_SC_HD__DIODE_2
XANTENNA_69 _2443_ VGND VGND VPWR VPWR SKY130_FD_SC_HD__DIODE_2
XANTENNA_7 _0105_ VGND VGND VPWR VPWR SKY130_FD_SC_HD__DIODE_2
XANTENNA_70 _2464_ VGND VGND VPWR VPWR SKY130_FD_SC_HD__DIODE_2
XANTENNA_71 _2484_ VGND VGND VPWR VPWR SKY130_FD_SC_HD__DIODE_2
XANTENNA_72 _2520_ VGND VGND VPWR VPWR SKY130_FD_SC_HD__DIODE_2
XANTENNA_73 _2520_ VGND VGND VPWR VPWR SKY130_FD_SC_HD__DIODE_2
XANTENNA_74 _2563_ VGND VGND VPWR VPWR SKY130_FD_SC_HD__DIODE_2
XANTENNA_75 _2567_ VGND VGND VPWR VPWR SKY130_FD_SC_HD__DIODE_2
XANTENNA_76 _2582_ VGND VGND VPWR VPWR SKY130_FD_SC_HD__DIODE_2
XANTENNA_77 _2593_ VGND VGND VPWR VPWR SKY130_FD_SC_HD__DIODE_2
XANTENNA_78 _2645_ VGND VGND VPWR VPWR SKY130_FD_SC_HD__DIODE_2
XANTENNA_79 _2816_ VGND VGND VPWR VPWR SKY130_FD_SC_HD__DIODE_2
XANTENNA_8 _0111_ VGND VGND VPWR VPWR SKY130_FD_SC_HD__DIODE_2
XANTENNA_80 _2977_ VGND VGND VPWR VPWR SKY130_FD_SC_HD__DIODE_2
XANTENNA_81 _2998_ VGND VGND VPWR VPWR SKY130_FD_SC_HD__DIODE_2
XANTENNA_82 _3151_ VGND VGND VPWR VPWR SKY130_FD_SC_HD__DIODE_2
XANTENNA_83 _3309_ VGND VGND VPWR VPWR SKY130_FD_SC_HD__DIODE_2
XANTENNA_84 _4000_ VGND VGND VPWR VPWR SKY130_FD_SC_HD__DIODE_2
XANTENNA_85 _4206_ VGND VGND VPWR VPWR SKY130_FD_SC_HD__DIODE_2
XANTENNA_86 _4206_ VGND VGND VPWR VPWR SKY130_FD_SC_HD__DIODE_2
XANTENNA_87 _4417_ VGND VGND VPWR VPWR SKY130_FD_SC_HD__DIODE_2
XANTENNA_88 _4432_ VGND VGND VPWR VPWR SKY130_FD_SC_HD__DIODE_2
XANTENNA_89 _4436_ VGND VGND VPWR VPWR SKY130_FD_SC_HD__DIODE_2
XANTENNA_9 _0113_ VGND VGND VPWR VPWR SKY130_FD_SC_HD__DIODE_2
XANTENNA_90 CLKNET_3_6_0_WB_CLK_I VGND VGND VPWR VPWR SKY130_FD_SC_HD__DIODE_2
XANTENNA_91 \HKSP VGND VGND VPWR VPWR SKY130_FD_SC_HD__DIODE_2
XANTENNA_92 \MGMT_GPIO_DATA[9]  VGND VGND VPWR VPWR SKY130_FD_SC_HD__DIODE_2
XANTENNA_93 NET207 VGND VGND VPWR VPWR SKY130_FD_SC_HD__DIODE_2
XANTENNA_94 NET245 VGND VGND VPWR VPWR SKY130_FD_SC_HD__DIODE_2
XANTENNA_95 NET312 VGND VGND VPWR VPWR SKY130_FD_SC_HD__DIODE_2
XANTENNA_96 NET312 VGND VGND VPWR VPWR SKY130_FD_SC_HD__DIODE_2
XANTENNA_97 NET312 VGND VGND VPWR VPWR SKY130_FD_SC_HD__DIODE_2
XANTENNA_98 NET312 VGND VGND VPWR VPWR SKY130_FD_SC_HD__DIODE_2
XANTENNA_99 NET312 VGND VGND VPWR VPWR SKY130_FD_SC_HD__DIODE_2
XFILLER_0_109 VGND VGND VPWR VPWR SKY130_FD_SC_HD__DECAP_3
XFILLER_0_11 VGND VGND VPWR VPWR SKY130_FD_SC_HD__FILL_2
XFILLER_0_117 VGND VGND VPWR VPWR SKY130_FD_SC_HD__FILL_2
XFILLER_0_123 VGND VGND VPWR VPWR SKY130_FD_SC_HD__DECAP_3
XFILLER_0_130 VGND VGND VPWR VPWR SKY130_FD_SC_HD__DECAP_3
XFILLER_0_137 VGND VGND VPWR VPWR SKY130_FD_SC_HD__DECAP_3
XFILLER_0_145 VGND VGND VPWR VPWR SKY130_FD_SC_HD__DECAP_3
XFILLER_0_152 VGND VGND VPWR VPWR SKY130_FD_SC_HD__DECAP_3
XFILLER_0_159 VGND VGND VPWR VPWR SKY130_FD_SC_HD__DECAP_3
XFILLER_0_166 VGND VGND VPWR VPWR SKY130_FD_SC_HD__FILL_2
XFILLER_0_173 VGND VGND VPWR VPWR SKY130_FD_SC_HD__DECAP_3
XFILLER_0_180 VGND VGND VPWR VPWR SKY130_FD_SC_HD__DECAP_3
XFILLER_0_187 VGND VGND VPWR VPWR SKY130_FD_SC_HD__DECAP_3
XFILLER_0_194 VGND VGND VPWR VPWR SKY130_FD_SC_HD__FILL_2
XFILLER_0_201 VGND VGND VPWR VPWR SKY130_FD_SC_HD__DECAP_3
XFILLER_0_208 VGND VGND VPWR VPWR SKY130_FD_SC_HD__DECAP_4
XFILLER_0_216 VGND VGND VPWR VPWR SKY130_FD_SC_HD__DECAP_3
XFILLER_0_223 VGND VGND VPWR VPWR SKY130_FD_SC_HD__FILL_1
XFILLER_0_225 VGND VGND VPWR VPWR SKY130_FD_SC_HD__FILL_1
XFILLER_0_230 VGND VGND VPWR VPWR SKY130_FD_SC_HD__DECAP_3
XFILLER_0_237 VGND VGND VPWR VPWR SKY130_FD_SC_HD__DECAP_3
XFILLER_0_24 VGND VGND VPWR VPWR SKY130_FD_SC_HD__DECAP_4
XFILLER_0_244 VGND VGND VPWR VPWR SKY130_FD_SC_HD__DECAP_3
XFILLER_0_251 VGND VGND VPWR VPWR SKY130_FD_SC_HD__FILL_1
XFILLER_0_253 VGND VGND VPWR VPWR SKY130_FD_SC_HD__FILL_1
XFILLER_0_258 VGND VGND VPWR VPWR SKY130_FD_SC_HD__DECAP_3
XFILLER_0_265 VGND VGND VPWR VPWR SKY130_FD_SC_HD__DECAP_3
XFILLER_0_272 VGND VGND VPWR VPWR SKY130_FD_SC_HD__DECAP_3
XFILLER_0_279 VGND VGND VPWR VPWR SKY130_FD_SC_HD__FILL_1
XFILLER_0_281 VGND VGND VPWR VPWR SKY130_FD_SC_HD__FILL_2
XFILLER_0_287 VGND VGND VPWR VPWR SKY130_FD_SC_HD__DECAP_3
XFILLER_0_294 VGND VGND VPWR VPWR SKY130_FD_SC_HD__DECAP_3
XFILLER_0_301 VGND VGND VPWR VPWR SKY130_FD_SC_HD__DECAP_3
XFILLER_0_309 VGND VGND VPWR VPWR SKY130_FD_SC_HD__FILL_2
XFILLER_0_315 VGND VGND VPWR VPWR SKY130_FD_SC_HD__DECAP_3
XFILLER_0_322 VGND VGND VPWR VPWR SKY130_FD_SC_HD__DECAP_3
XFILLER_0_329 VGND VGND VPWR VPWR SKY130_FD_SC_HD__DECAP_3
XFILLER_0_33 VGND VGND VPWR VPWR SKY130_FD_SC_HD__FILL_1
XFILLER_0_337 VGND VGND VPWR VPWR SKY130_FD_SC_HD__FILL_2
XFILLER_0_343 VGND VGND VPWR VPWR SKY130_FD_SC_HD__DECAP_3
XFILLER_0_350 VGND VGND VPWR VPWR SKY130_FD_SC_HD__DECAP_3
XFILLER_0_357 VGND VGND VPWR VPWR SKY130_FD_SC_HD__DECAP_3
XFILLER_0_365 VGND VGND VPWR VPWR SKY130_FD_SC_HD__DECAP_3
XFILLER_0_372 VGND VGND VPWR VPWR SKY130_FD_SC_HD__DECAP_4
XFILLER_0_38 VGND VGND VPWR VPWR SKY130_FD_SC_HD__DECAP_3
XFILLER_0_399 VGND VGND VPWR VPWR SKY130_FD_SC_HD__DECAP_4
XFILLER_0_406 VGND VGND VPWR VPWR SKY130_FD_SC_HD__DECAP_4
XFILLER_0_413 VGND VGND VPWR VPWR SKY130_FD_SC_HD__DECAP_4
XFILLER_0_421 VGND VGND VPWR VPWR SKY130_FD_SC_HD__DECAP_3
XFILLER_0_427 VGND VGND VPWR VPWR SKY130_FD_SC_HD__DECAP_4
XFILLER_0_431 VGND VGND VPWR VPWR SKY130_FD_SC_HD__FILL_1
XFILLER_0_435 VGND VGND VPWR VPWR SKY130_FD_SC_HD__DECAP_4
XFILLER_0_442 VGND VGND VPWR VPWR SKY130_FD_SC_HD__DECAP_6
XFILLER_0_45 VGND VGND VPWR VPWR SKY130_FD_SC_HD__DECAP_3
XFILLER_0_456 VGND VGND VPWR VPWR SKY130_FD_SC_HD__DECAP_4
XFILLER_0_463 VGND VGND VPWR VPWR SKY130_FD_SC_HD__DECAP_4
XFILLER_0_470 VGND VGND VPWR VPWR SKY130_FD_SC_HD__DECAP_6
XFILLER_0_480 VGND VGND VPWR VPWR SKY130_FD_SC_HD__FILL_1
XFILLER_0_484 VGND VGND VPWR VPWR SKY130_FD_SC_HD__DECAP_4
XFILLER_0_491 VGND VGND VPWR VPWR SKY130_FD_SC_HD__DECAP_4
XFILLER_0_498 VGND VGND VPWR VPWR SKY130_FD_SC_HD__DECAP_6
XFILLER_0_508 VGND VGND VPWR VPWR SKY130_FD_SC_HD__FILL_2
XFILLER_0_513 VGND VGND VPWR VPWR SKY130_FD_SC_HD__DECAP_4
XFILLER_0_52 VGND VGND VPWR VPWR SKY130_FD_SC_HD__DECAP_4
XFILLER_0_520 VGND VGND VPWR VPWR SKY130_FD_SC_HD__DECAP_4
XFILLER_0_527 VGND VGND VPWR VPWR SKY130_FD_SC_HD__DECAP_4
XFILLER_0_531 VGND VGND VPWR VPWR SKY130_FD_SC_HD__FILL_1
XFILLER_0_536 VGND VGND VPWR VPWR SKY130_FD_SC_HD__FILL_2
XFILLER_0_541 VGND VGND VPWR VPWR SKY130_FD_SC_HD__DECAP_4
XFILLER_0_548 VGND VGND VPWR VPWR SKY130_FD_SC_HD__DECAP_4
XFILLER_0_555 VGND VGND VPWR VPWR SKY130_FD_SC_HD__DECAP_4
XFILLER_0_559 VGND VGND VPWR VPWR SKY130_FD_SC_HD__FILL_1
XFILLER_0_564 VGND VGND VPWR VPWR SKY130_FD_SC_HD__FILL_2
XFILLER_0_569 VGND VGND VPWR VPWR SKY130_FD_SC_HD__DECAP_4
XFILLER_0_573 VGND VGND VPWR VPWR SKY130_FD_SC_HD__FILL_1
XFILLER_0_577 VGND VGND VPWR VPWR SKY130_FD_SC_HD__DECAP_4
XFILLER_0_584 VGND VGND VPWR VPWR SKY130_FD_SC_HD__DECAP_4
XFILLER_0_592 VGND VGND VPWR VPWR SKY130_FD_SC_HD__DECAP_3
XFILLER_0_598 VGND VGND VPWR VPWR SKY130_FD_SC_HD__DECAP_4
XFILLER_0_605 VGND VGND VPWR VPWR SKY130_FD_SC_HD__FILL_1
XFILLER_0_61 VGND VGND VPWR VPWR SKY130_FD_SC_HD__FILL_1
XFILLER_0_66 VGND VGND VPWR VPWR SKY130_FD_SC_HD__DECAP_4
XFILLER_0_74 VGND VGND VPWR VPWR SKY130_FD_SC_HD__DECAP_6
XFILLER_100_108 VGND VGND VPWR VPWR SKY130_FD_SC_HD__DECAP_6
XFILLER_100_119 VGND VGND VPWR VPWR SKY130_FD_SC_HD__DECAP_12
XFILLER_100_131 VGND VGND VPWR VPWR SKY130_FD_SC_HD__DECAP_8
XFILLER_100_139 VGND VGND VPWR VPWR SKY130_FD_SC_HD__FILL_1
XFILLER_100_141 VGND VGND VPWR VPWR SKY130_FD_SC_HD__DECAP_12
XFILLER_100_15 VGND VGND VPWR VPWR SKY130_FD_SC_HD__FILL_1
XFILLER_100_153 VGND VGND VPWR VPWR SKY130_FD_SC_HD__FILL_2
XFILLER_100_162 VGND VGND VPWR VPWR SKY130_FD_SC_HD__DECAP_12
XFILLER_100_174 VGND VGND VPWR VPWR SKY130_FD_SC_HD__DECAP_12
XFILLER_100_186 VGND VGND VPWR VPWR SKY130_FD_SC_HD__DECAP_8
XFILLER_100_194 VGND VGND VPWR VPWR SKY130_FD_SC_HD__FILL_2
XFILLER_100_197 VGND VGND VPWR VPWR SKY130_FD_SC_HD__DECAP_6
XFILLER_100_206 VGND VGND VPWR VPWR SKY130_FD_SC_HD__DECAP_12
XFILLER_100_218 VGND VGND VPWR VPWR SKY130_FD_SC_HD__DECAP_12
XFILLER_100_230 VGND VGND VPWR VPWR SKY130_FD_SC_HD__DECAP_12
XFILLER_100_242 VGND VGND VPWR VPWR SKY130_FD_SC_HD__DECAP_8
XFILLER_100_250 VGND VGND VPWR VPWR SKY130_FD_SC_HD__FILL_2
XFILLER_100_253 VGND VGND VPWR VPWR SKY130_FD_SC_HD__DECAP_12
XFILLER_100_265 VGND VGND VPWR VPWR SKY130_FD_SC_HD__DECAP_12
XFILLER_100_277 VGND VGND VPWR VPWR SKY130_FD_SC_HD__DECAP_12
XFILLER_100_289 VGND VGND VPWR VPWR SKY130_FD_SC_HD__DECAP_12
XFILLER_100_301 VGND VGND VPWR VPWR SKY130_FD_SC_HD__DECAP_6
XFILLER_100_307 VGND VGND VPWR VPWR SKY130_FD_SC_HD__FILL_1
XFILLER_100_309 VGND VGND VPWR VPWR SKY130_FD_SC_HD__DECAP_12
XFILLER_100_321 VGND VGND VPWR VPWR SKY130_FD_SC_HD__DECAP_12
XFILLER_100_33 VGND VGND VPWR VPWR SKY130_FD_SC_HD__DECAP_8
XFILLER_100_333 VGND VGND VPWR VPWR SKY130_FD_SC_HD__DECAP_12
XFILLER_100_345 VGND VGND VPWR VPWR SKY130_FD_SC_HD__DECAP_12
XFILLER_100_357 VGND VGND VPWR VPWR SKY130_FD_SC_HD__DECAP_6
XFILLER_100_363 VGND VGND VPWR VPWR SKY130_FD_SC_HD__FILL_1
XFILLER_100_372 VGND VGND VPWR VPWR SKY130_FD_SC_HD__DECAP_12
XFILLER_100_384 VGND VGND VPWR VPWR SKY130_FD_SC_HD__DECAP_12
XFILLER_100_396 VGND VGND VPWR VPWR SKY130_FD_SC_HD__DECAP_8
XFILLER_100_404 VGND VGND VPWR VPWR SKY130_FD_SC_HD__FILL_1
XFILLER_100_41 VGND VGND VPWR VPWR SKY130_FD_SC_HD__FILL_1
XFILLER_100_414 VGND VGND VPWR VPWR SKY130_FD_SC_HD__DECAP_6
XFILLER_100_421 VGND VGND VPWR VPWR SKY130_FD_SC_HD__FILL_2
XFILLER_100_432 VGND VGND VPWR VPWR SKY130_FD_SC_HD__DECAP_4
XFILLER_100_445 VGND VGND VPWR VPWR SKY130_FD_SC_HD__DECAP_12
XFILLER_100_457 VGND VGND VPWR VPWR SKY130_FD_SC_HD__DECAP_12
XFILLER_100_477 VGND VGND VPWR VPWR SKY130_FD_SC_HD__DECAP_8
XFILLER_100_485 VGND VGND VPWR VPWR SKY130_FD_SC_HD__FILL_2
XFILLER_100_496 VGND VGND VPWR VPWR SKY130_FD_SC_HD__DECAP_12
XFILLER_100_508 VGND VGND VPWR VPWR SKY130_FD_SC_HD__DECAP_8
XFILLER_100_51 VGND VGND VPWR VPWR SKY130_FD_SC_HD__DECAP_6
XFILLER_100_516 VGND VGND VPWR VPWR SKY130_FD_SC_HD__FILL_1
XFILLER_100_520 VGND VGND VPWR VPWR SKY130_FD_SC_HD__DECAP_12
XFILLER_100_533 VGND VGND VPWR VPWR SKY130_FD_SC_HD__DECAP_12
XFILLER_100_545 VGND VGND VPWR VPWR SKY130_FD_SC_HD__DECAP_12
XFILLER_100_557 VGND VGND VPWR VPWR SKY130_FD_SC_HD__DECAP_12
XFILLER_100_569 VGND VGND VPWR VPWR SKY130_FD_SC_HD__DECAP_12
XFILLER_100_57 VGND VGND VPWR VPWR SKY130_FD_SC_HD__FILL_1
XFILLER_100_609 VGND VGND VPWR VPWR SKY130_FD_SC_HD__DECAP_8
XFILLER_100_617 VGND VGND VPWR VPWR SKY130_FD_SC_HD__FILL_1
XFILLER_100_79 VGND VGND VPWR VPWR SKY130_FD_SC_HD__DECAP_4
XFILLER_100_83 VGND VGND VPWR VPWR SKY130_FD_SC_HD__FILL_1
XFILLER_100_9 VGND VGND VPWR VPWR SKY130_FD_SC_HD__DECAP_6
XFILLER_100_99 VGND VGND VPWR VPWR SKY130_FD_SC_HD__DECAP_4
XFILLER_101_106 VGND VGND VPWR VPWR SKY130_FD_SC_HD__DECAP_6
XFILLER_101_113 VGND VGND VPWR VPWR SKY130_FD_SC_HD__DECAP_8
XFILLER_101_126 VGND VGND VPWR VPWR SKY130_FD_SC_HD__DECAP_4
XFILLER_101_139 VGND VGND VPWR VPWR SKY130_FD_SC_HD__DECAP_4
XFILLER_101_143 VGND VGND VPWR VPWR SKY130_FD_SC_HD__FILL_1
XFILLER_101_165 VGND VGND VPWR VPWR SKY130_FD_SC_HD__DECAP_3
XFILLER_101_169 VGND VGND VPWR VPWR SKY130_FD_SC_HD__FILL_1
XFILLER_101_173 VGND VGND VPWR VPWR SKY130_FD_SC_HD__DECAP_12
XFILLER_101_185 VGND VGND VPWR VPWR SKY130_FD_SC_HD__DECAP_12
XFILLER_101_19 VGND VGND VPWR VPWR SKY130_FD_SC_HD__DECAP_12
XFILLER_101_197 VGND VGND VPWR VPWR SKY130_FD_SC_HD__DECAP_12
XFILLER_101_209 VGND VGND VPWR VPWR SKY130_FD_SC_HD__DECAP_12
XFILLER_101_221 VGND VGND VPWR VPWR SKY130_FD_SC_HD__DECAP_3
XFILLER_101_225 VGND VGND VPWR VPWR SKY130_FD_SC_HD__DECAP_12
XFILLER_101_237 VGND VGND VPWR VPWR SKY130_FD_SC_HD__DECAP_12
XFILLER_101_249 VGND VGND VPWR VPWR SKY130_FD_SC_HD__DECAP_6