* Extracted by KLayout on : 19/01/2022 09:20

.SUBCKT housekeeping pad_flash_clk_oeb pad_flash_csb pad_flash_csb_oeb
+ pad_flash_io0_di pad_flash_io0_do pad_flash_io0_ieb pad_flash_io0_oeb
+ pad_flash_io1_di pad_flash_io1_do pad_flash_io1_ieb pad_flash_io1_oeb
+ pll_dco_ena pll_div[0] pll_div[1] pll_div[2] pll_div[3] pll_div[4] pll_sel[0]
+ pll_sel[1] pll_sel[2] pll90_sel[0] pll90_sel[1] pll90_sel[2] pll_trim[0]
+ pll_trim[1] pll_trim[2] pll_trim[3] pll_trim[4] pll_trim[5] pll_trim[6]
+ pll_trim[7] pll_trim[8] pll_trim[9] pll_trim[10] pll_trim[11] pll_trim[12]
+ pll_trim[13] pll_trim[14] pll_trim[15] pll_trim[16] pll_trim[17] pll_trim[18]
+ pll_trim[19] pll_trim[20] pll_trim[21] pll_trim[22] pll_trim[23] pll_trim[24]
+ pll_trim[25] pll_bypass mask_rev_in[0] mask_rev_in[1] mask_rev_in[2]
+ mask_rev_in[3] mask_rev_in[4] mask_rev_in[5] mask_rev_in[6] mask_rev_in[7]
+ mask_rev_in[8] mask_rev_in[9] mask_rev_in[10] mask_rev_in[11] mask_rev_in[12]
+ mask_rev_in[13] mask_rev_in[14] mask_rev_in[15] mask_rev_in[16]
+ mask_rev_in[17] mask_rev_in[18] mask_rev_in[19] mask_rev_in[20]
+ mask_rev_in[21] mask_rev_in[22] mask_rev_in[23] mask_rev_in[24]
+ mask_rev_in[25] mask_rev_in[26] mask_rev_in[27] mask_rev_in[28]
+ mask_rev_in[29] mask_rev_in[30] mask_rev_in[31] pwr_ctrl_out[0]
+ pwr_ctrl_out[1] sram_ro_csb sram_ro_addr[0] reset serial_clock porb wb_rstn_i
+ sram_ro_addr[1] serial_resetn pwr_ctrl_out[3] pad_flash_clk VPWR pll_ena
+ pwr_ctrl_out[2] serial_load sram_ro_addr[2] sram_ro_addr[3] sram_ro_addr[4]
+ serial_data_1 sram_ro_addr[5] sram_ro_addr[6] serial_data_2 sram_ro_addr[7]
+ mgmt_gpio_in[0] sram_ro_clk sram_ro_data[0] mgmt_gpio_oeb[0] sram_ro_data[1]
+ sram_ro_data[2] mgmt_gpio_out[0] sram_ro_data[3] mgmt_gpio_in[1]
+ sram_ro_data[4] mgmt_gpio_in[4] sram_ro_data[5] mgmt_gpio_oeb[1]
+ sram_ro_data[6] sram_ro_data[7] mgmt_gpio_out[1] sram_ro_data[8]
+ mgmt_gpio_in[2] sram_ro_data[9] sram_ro_data[10] mgmt_gpio_oeb[2]
+ sram_ro_data[11] mgmt_gpio_out[2] sram_ro_data[12] mgmt_gpio_in[3]
+ sram_ro_data[13] sram_ro_data[14] sram_ro_data[15] mgmt_gpio_oeb[3]
+ sram_ro_data[16] mgmt_gpio_out[3] sram_ro_data[17] sram_ro_data[18]
+ sram_ro_data[19] sram_ro_data[20] mgmt_gpio_oeb[4] sram_ro_data[21]
+ mgmt_gpio_out[4] sram_ro_data[22] sram_ro_data[23] mgmt_gpio_in[5]
+ sram_ro_data[24] sram_ro_data[25] mgmt_gpio_oeb[5] sram_ro_data[26]
+ mgmt_gpio_out[5] sram_ro_data[27] sram_ro_data[28] mgmt_gpio_in[6]
+ sram_ro_data[29] sram_ro_data[30] mgmt_gpio_oeb[6] sram_ro_data[31]
+ mgmt_gpio_out[6] debug_in debug_mode mgmt_gpio_in[7] debug_oeb debug_out
+ mgmt_gpio_oeb[7] trap irq[0] mgmt_gpio_out[7] irq[1] mgmt_gpio_in[8] irq[2]
+ spi_sdoenb mgmt_gpio_oeb[8] spi_sdo mgmt_gpio_out[8] spi_sck wb_clk_i spi_csb
+ mgmt_gpio_in[9] spi_sdi ser_tx mgmt_gpio_oeb[9] ser_rx mgmt_gpio_out[9]
+ qspi_enabled uart_enabled mgmt_gpio_in[10] spi_enabled wb_ack_o
+ mgmt_gpio_oeb[10] wb_stb_i wb_dat_o[0] mgmt_gpio_out[10] wb_dat_o[1]
+ mgmt_gpio_in[11] wb_dat_o[2] wb_dat_o[3] mgmt_gpio_oeb[11] wb_dat_o[4]
+ mgmt_gpio_out[11] wb_dat_o[5] wb_dat_o[6] mgmt_gpio_in[12] wb_dat_o[7]
+ wb_dat_o[8] mgmt_gpio_oeb[12] wb_dat_o[9] mgmt_gpio_out[12] wb_dat_o[10]
+ wb_dat_o[11] mgmt_gpio_in[13] wb_dat_o[12] wb_dat_o[13] mgmt_gpio_oeb[13]
+ wb_dat_o[14] wb_dat_o[15] mgmt_gpio_out[13] wb_dat_o[16] mgmt_gpio_in[14]
+ wb_dat_o[17] wb_dat_o[18] mgmt_gpio_oeb[14] wb_dat_o[19] mgmt_gpio_out[14]
+ wb_dat_o[20] wb_dat_o[21] mgmt_gpio_in[15] wb_dat_o[22] wb_dat_o[23]
+ mgmt_gpio_oeb[15] wb_dat_o[24] mgmt_gpio_out[15] wb_dat_o[25] user_clock
+ wb_dat_o[26] mgmt_gpio_in[16] wb_dat_o[27] wb_dat_o[28] mgmt_gpio_oeb[16]
+ wb_dat_o[29] mgmt_gpio_out[33] mgmt_gpio_out[16] wb_dat_o[30] wb_dat_o[31]
+ mgmt_gpio_in[17] spimemio_flash_clk spimemio_flash_csb mgmt_gpio_out[17]
+ mgmt_gpio_oeb[17] spimemio_flash_io0_di spimemio_flash_io0_do
+ spimemio_flash_io0_oeb mgmt_gpio_out[32] mgmt_gpio_out[18] mgmt_gpio_in[18]
+ spimemio_flash_io1_di mgmt_gpio_out[31] mgmt_gpio_oeb[18]
+ spimemio_flash_io1_do mgmt_gpio_out[28] spimemio_flash_io1_oeb
+ spimemio_flash_io2_di mgmt_gpio_out[26] mgmt_gpio_out[30]
+ spimemio_flash_io2_do mgmt_gpio_out[20] mgmt_gpio_out[23] mgmt_gpio_in[19]
+ mgmt_gpio_out[19] mgmt_gpio_out[25] mgmt_gpio_out[37] wb_adr_i[3]
+ mgmt_gpio_out[21] mgmt_gpio_out[24] mgmt_gpio_out[27] mgmt_gpio_out[36]
+ mgmt_gpio_out[22] mgmt_gpio_out[29] spimemio_flash_io2_oeb
+ spimemio_flash_io3_do wb_adr_i[9] mgmt_gpio_out[34] wb_adr_i[0] wb_adr_i[6]
+ wb_we_i wb_adr_i[1] wb_adr_i[2] wb_adr_i[4] mgmt_gpio_in[37] wb_sel_i[3]
+ mgmt_gpio_oeb[28] mgmt_gpio_out[35] mgmt_gpio_oeb[37] mgmt_gpio_oeb[34]
+ mgmt_gpio_oeb[31] mgmt_gpio_oeb[36] spimemio_flash_io3_di mgmt_gpio_in[31]
+ spimemio_flash_io3_oeb wb_adr_i[8] wb_dat_i[10] wb_adr_i[5] wb_adr_i[7]
+ wb_adr_i[10] wb_adr_i[11] wb_adr_i[12] wb_adr_i[13] wb_adr_i[14] wb_adr_i[15]
+ wb_adr_i[16] wb_adr_i[17] wb_adr_i[18] wb_adr_i[19] wb_adr_i[20] wb_adr_i[21]
+ wb_adr_i[22] wb_adr_i[23] wb_adr_i[24] wb_adr_i[25] wb_adr_i[26] wb_adr_i[27]
+ wb_adr_i[28] wb_adr_i[29] wb_adr_i[30] wb_adr_i[31] wb_dat_i[0] wb_dat_i[1]
+ wb_dat_i[2] wb_dat_i[3] wb_dat_i[4] wb_dat_i[5] wb_dat_i[6] wb_dat_i[7]
+ wb_dat_i[8] wb_dat_i[9] wb_dat_i[11] wb_dat_i[12] wb_dat_i[13] wb_dat_i[14]
+ wb_dat_i[15] wb_dat_i[16] wb_dat_i[17] wb_dat_i[18] wb_dat_i[19] wb_dat_i[20]
+ wb_dat_i[21] wb_dat_i[22] wb_dat_i[23] wb_dat_i[24] wb_dat_i[25] wb_dat_i[26]
+ wb_dat_i[27] wb_dat_i[28] wb_dat_i[29] wb_dat_i[30] wb_dat_i[31] wb_sel_i[0]
+ wb_sel_i[1] wb_sel_i[2] wb_cyc_i usr1_vcc_pwrgood usr2_vcc_pwrgood
+ usr1_vdd_pwrgood usr2_vdd_pwrgood mgmt_gpio_in[20] mgmt_gpio_in[21]
+ mgmt_gpio_in[22] mgmt_gpio_in[23] mgmt_gpio_in[24] mgmt_gpio_in[25]
+ mgmt_gpio_in[26] mgmt_gpio_in[27] mgmt_gpio_in[28] mgmt_gpio_in[29]
+ mgmt_gpio_in[30] mgmt_gpio_in[32] mgmt_gpio_in[33] mgmt_gpio_in[34]
+ mgmt_gpio_in[35] mgmt_gpio_in[36] mgmt_gpio_oeb[20] mgmt_gpio_oeb[21]
+ mgmt_gpio_oeb[22] mgmt_gpio_oeb[23] mgmt_gpio_oeb[24] mgmt_gpio_oeb[25]
+ mgmt_gpio_oeb[26] mgmt_gpio_oeb[27] mgmt_gpio_oeb[29] mgmt_gpio_oeb[30]
+ mgmt_gpio_oeb[32] mgmt_gpio_oeb[33] mgmt_gpio_oeb[35] mgmt_gpio_oeb[19] VGND
X$1 VPWR VGND pad_flash_clk_oeb VPWR \$96 VGND sky130_fd_sc_hd__buf_2
X$2 VPWR VGND pad_flash_csb VPWR \$136 VGND sky130_fd_sc_hd__buf_2
X$3 VPWR VGND pad_flash_csb_oeb VPWR \$97 VGND sky130_fd_sc_hd__buf_2
X$4 VPWR \$155 VGND VPWR pad_flash_io0_di VGND sky130_fd_sc_hd__clkbuf_1
X$5 VPWR VGND pad_flash_io0_do VPWR \$98 VGND sky130_fd_sc_hd__buf_2
X$6 VPWR VGND pad_flash_io0_ieb VPWR \$99 VGND sky130_fd_sc_hd__buf_2
X$7 VPWR VGND pad_flash_io0_oeb VPWR \$100 VGND sky130_fd_sc_hd__buf_2
X$8 VPWR VGND \$573 VPWR pad_flash_io1_di VGND sky130_fd_sc_hd__buf_2
X$9 VPWR VGND pad_flash_io1_do VPWR \$101 VGND sky130_fd_sc_hd__buf_2
X$10 VPWR VGND pad_flash_io1_ieb VPWR \$102 VGND sky130_fd_sc_hd__buf_2
X$11 VPWR VGND pad_flash_io1_oeb VPWR \$228 VGND sky130_fd_sc_hd__buf_2
X$12 VPWR VGND pll_dco_ena VPWR \$104 VGND sky130_fd_sc_hd__buf_2
X$13 VPWR VGND pll_div[0] VPWR \$105 VGND sky130_fd_sc_hd__buf_2
X$14 VPWR VGND pll_div[1] VPWR \$106 VGND sky130_fd_sc_hd__buf_2
X$15 VPWR VGND pll_div[2] VPWR \$107 VGND sky130_fd_sc_hd__buf_2
X$16 VPWR VGND pll_div[3] VPWR \$108 VGND sky130_fd_sc_hd__buf_2
X$17 VPWR VGND pll_div[4] VPWR \$109 VGND sky130_fd_sc_hd__buf_2
X$18 VPWR VGND pll_sel[0] VPWR \$137 VGND sky130_fd_sc_hd__buf_2
X$19 VPWR VGND pll_sel[1] VPWR \$110 VGND sky130_fd_sc_hd__buf_2
X$20 VPWR VGND pll_sel[2] VPWR \$111 VGND sky130_fd_sc_hd__buf_2
X$21 VPWR VGND pll90_sel[0] VPWR \$112 VGND sky130_fd_sc_hd__buf_2
X$22 VPWR VGND pll90_sel[1] VPWR \$113 VGND sky130_fd_sc_hd__buf_2
X$23 VPWR VGND pll90_sel[2] VPWR \$138 VGND sky130_fd_sc_hd__buf_2
X$24 VPWR VGND pll_trim[0] VPWR \$114 VGND sky130_fd_sc_hd__buf_2
X$25 VPWR VGND pll_trim[1] VPWR \$115 VGND sky130_fd_sc_hd__buf_2
X$26 VPWR VGND pll_trim[2] VPWR \$398 VGND sky130_fd_sc_hd__buf_2
X$27 VPWR VGND pll_trim[3] VPWR \$116 VGND sky130_fd_sc_hd__buf_2
X$28 VPWR VGND pll_trim[4] VPWR \$139 VGND sky130_fd_sc_hd__buf_2
X$29 VPWR VGND pll_trim[5] VPWR \$117 VGND sky130_fd_sc_hd__buf_2
X$30 VPWR VGND pll_trim[6] VPWR \$430 VGND sky130_fd_sc_hd__buf_2
X$31 VPWR VGND pll_trim[7] VPWR \$346 VGND sky130_fd_sc_hd__buf_2
X$32 VPWR VGND pll_trim[8] VPWR \$118 VGND sky130_fd_sc_hd__buf_2
X$33 VPWR VGND pll_trim[9] VPWR \$140 VGND sky130_fd_sc_hd__buf_2
X$34 VPWR VGND pll_trim[10] VPWR \$141 VGND sky130_fd_sc_hd__buf_2
X$35 VPWR VGND pll_trim[11] VPWR \$142 VGND sky130_fd_sc_hd__buf_2
X$36 VPWR VGND pll_trim[12] VPWR \$143 VGND sky130_fd_sc_hd__buf_2
X$37 VPWR VGND pll_trim[13] VPWR \$119 VGND sky130_fd_sc_hd__buf_2
X$38 VPWR VGND pll_trim[14] VPWR \$120 VGND sky130_fd_sc_hd__buf_2
X$39 VPWR VGND pll_trim[15] VPWR \$121 VGND sky130_fd_sc_hd__buf_2
X$40 VPWR VGND pll_trim[16] VPWR \$122 VGND sky130_fd_sc_hd__buf_2
X$41 VPWR VGND pll_trim[17] VPWR \$144 VGND sky130_fd_sc_hd__buf_2
X$42 VPWR VGND pll_trim[18] VPWR \$123 VGND sky130_fd_sc_hd__buf_2
X$43 VPWR VGND pll_trim[19] VPWR \$124 VGND sky130_fd_sc_hd__buf_2
X$44 VPWR VGND pll_trim[20] VPWR \$125 VGND sky130_fd_sc_hd__buf_2
X$45 VPWR VGND pll_trim[21] VPWR \$126 VGND sky130_fd_sc_hd__buf_2
X$46 VPWR VGND pll_trim[22] VPWR \$127 VGND sky130_fd_sc_hd__buf_2
X$47 VPWR VGND pll_trim[23] VPWR \$128 VGND sky130_fd_sc_hd__buf_2
X$48 VPWR VGND pll_trim[24] VPWR \$129 VGND sky130_fd_sc_hd__buf_2
X$49 VPWR VGND pll_trim[25] VPWR \$130 VGND sky130_fd_sc_hd__buf_2
X$50 VPWR VGND pll_bypass VPWR \$145 VGND sky130_fd_sc_hd__buf_2
X$51 VPWR \$156 VGND VPWR mask_rev_in[0] VGND sky130_fd_sc_hd__clkbuf_1
X$52 VPWR \$157 VGND VPWR mask_rev_in[1] VGND sky130_fd_sc_hd__clkbuf_1
X$53 VPWR \$158 VGND VPWR mask_rev_in[2] VGND sky130_fd_sc_hd__clkbuf_1
X$54 VPWR \$159 VGND VPWR mask_rev_in[3] VGND sky130_fd_sc_hd__clkbuf_1
X$55 VPWR \$160 VGND VPWR mask_rev_in[4] VGND sky130_fd_sc_hd__clkbuf_1
X$56 VPWR \$161 VGND VPWR mask_rev_in[5] VGND sky130_fd_sc_hd__clkbuf_1
X$57 VPWR \$162 VGND VPWR mask_rev_in[6] VGND sky130_fd_sc_hd__clkbuf_1
X$58 VPWR \$163 VGND VPWR mask_rev_in[7] VGND sky130_fd_sc_hd__clkbuf_1
X$59 VPWR VGND \$149 VPWR mask_rev_in[8] VGND sky130_fd_sc_hd__buf_2
X$60 VPWR \$89 VGND VPWR mask_rev_in[9] VGND sky130_fd_sc_hd__clkbuf_1
X$61 VPWR \$150 VGND VPWR mask_rev_in[10] VGND sky130_fd_sc_hd__clkbuf_1
X$62 VPWR \$164 VGND VPWR mask_rev_in[11] VGND sky130_fd_sc_hd__clkbuf_1
X$63 VPWR \$165 VGND VPWR mask_rev_in[12] VGND sky130_fd_sc_hd__clkbuf_1
X$64 VPWR \$94 VGND VPWR mask_rev_in[13] VGND sky130_fd_sc_hd__clkbuf_1
X$65 VPWR \$151 VGND VPWR mask_rev_in[14] VGND sky130_fd_sc_hd__clkbuf_1
X$66 VPWR \$146 VGND VPWR mask_rev_in[15] VGND sky130_fd_sc_hd__clkbuf_1
X$67 VPWR \$166 VGND VPWR mask_rev_in[16] VGND sky130_fd_sc_hd__clkbuf_1
X$68 VPWR \$167 VGND VPWR mask_rev_in[17] VGND sky130_fd_sc_hd__clkbuf_1
X$69 VPWR \$95 VGND VPWR mask_rev_in[18] VGND sky130_fd_sc_hd__clkbuf_1
X$70 VPWR \$168 VGND VPWR mask_rev_in[19] VGND sky130_fd_sc_hd__clkbuf_1
X$71 VPWR \$169 VGND VPWR mask_rev_in[20] VGND sky130_fd_sc_hd__clkbuf_1
X$72 VPWR \$170 VGND VPWR mask_rev_in[21] VGND sky130_fd_sc_hd__clkbuf_1
X$73 VPWR \$152 VGND VPWR mask_rev_in[22] VGND sky130_fd_sc_hd__clkbuf_1
X$74 VPWR \$171 VGND VPWR mask_rev_in[23] VGND sky130_fd_sc_hd__clkbuf_1
X$75 VPWR \$172 VGND VPWR mask_rev_in[24] VGND sky130_fd_sc_hd__clkbuf_1
X$76 VPWR \$173 VGND VPWR mask_rev_in[25] VGND sky130_fd_sc_hd__clkbuf_1
X$77 VPWR \$174 VGND VPWR mask_rev_in[26] VGND sky130_fd_sc_hd__clkbuf_1
X$78 VPWR \$175 VGND VPWR mask_rev_in[27] VGND sky130_fd_sc_hd__clkbuf_1
X$79 VPWR \$176 VGND VPWR mask_rev_in[28] VGND sky130_fd_sc_hd__clkbuf_1
X$80 VPWR \$153 VGND VPWR mask_rev_in[29] VGND sky130_fd_sc_hd__clkbuf_1
X$81 VPWR \$177 VGND VPWR mask_rev_in[30] VGND sky130_fd_sc_hd__clkbuf_1
X$82 VPWR \$178 VGND VPWR mask_rev_in[31] VGND sky130_fd_sc_hd__clkbuf_1
X$83 VPWR VGND pwr_ctrl_out[0] VPWR \$133 VGND sky130_fd_sc_hd__buf_2
X$84 VPWR VGND pwr_ctrl_out[1] VPWR \$134 VGND sky130_fd_sc_hd__buf_2
X$85 VPWR VGND sram_ro_csb VPWR \$91 VGND sky130_fd_sc_hd__buf_2
X$86 VPWR VGND sram_ro_addr[0] VPWR \$193 VGND sky130_fd_sc_hd__buf_2
X$87 VPWR VGND reset VPWR \$103 VGND sky130_fd_sc_hd__buf_2
X$88 VPWR VGND VPWR \$262 \$89 VGND sky130_fd_sc_hd__inv_2
X$89 VPWR serial_clock VGND VPWR \$147 VGND sky130_fd_sc_hd__clkbuf_1
X$90 VGND \$655 \$91 \$237 \$483 VPWR VPWR VGND sky130_fd_sc_hd__dfstp_2
X$91 VGND \$493 \$91 \$183 \$523 VPWR VPWR VGND sky130_fd_sc_hd__mux2_1
X$92 VPWR VGND VPWR \$1164 \$91 VGND sky130_fd_sc_hd__inv_2
X$93 VGND porb \$655 VPWR VPWR VGND sky130_fd_sc_hd__buf_12
X$94 VGND \$93 \$1369 \$5034 \$5107 VPWR VPWR VGND sky130_fd_sc_hd__dfrtp_4
X$95 VGND \$93 \$1452 \$5034 \$5018 VPWR VPWR VGND sky130_fd_sc_hd__dfrtp_4
X$96 VGND \$93 \$5079 \$5034 \$5378 VPWR VPWR VGND sky130_fd_sc_hd__dfrtp_4
X$97 VGND \$93 \$5495 \$5034 \$5426 VPWR VPWR VGND sky130_fd_sc_hd__dfrtp_4
X$98 VGND \$93 \$5423 \$5034 \$5416 VPWR VPWR VGND sky130_fd_sc_hd__dfrtp_4
X$99 VGND \$93 \$3831 \$5034 \$5338 VPWR VPWR VGND sky130_fd_sc_hd__dfrtp_4
X$100 VGND \$93 \$4897 \$5034 \$4921 VPWR VPWR VGND sky130_fd_sc_hd__dfrtp_2
X$101 VGND \$93 \$5432 \$5034 \$5431 VPWR VPWR VGND sky130_fd_sc_hd__dfrtp_1
X$102 VGND \$93 \$5215 \$5034 \$5407 VPWR VPWR VGND sky130_fd_sc_hd__dfrtp_1
X$103 VGND \$93 \$5681 \$5034 \$5693 VPWR VPWR VGND sky130_fd_sc_hd__dfrtp_1
X$104 VGND \$93 \$5686 \$5002 \$5669 VPWR VPWR VGND sky130_fd_sc_hd__dfrtp_1
X$105 VGND \$93 \$5610 \$5002 \$5716 VPWR VPWR VGND sky130_fd_sc_hd__dfrtp_1
X$106 VGND \$93 \$1550 \$1201 \$1832 VPWR VPWR VGND sky130_fd_sc_hd__dfrtp_1
X$107 VGND \$93 \$5116 \$5002 \$5176 VPWR VPWR VGND sky130_fd_sc_hd__dfrtp_1
X$108 VGND \$93 \$2070 \$1201 \$2092 VPWR VPWR VGND sky130_fd_sc_hd__dfrtp_1
X$109 VGND \$93 \$5176 \$5034 \$5306 VPWR VPWR VGND sky130_fd_sc_hd__dfrtp_1
X$110 VGND \$93 \$1324 \$1201 \$1674 VPWR VPWR VGND sky130_fd_sc_hd__dfrtp_1
X$111 VGND \$93 \$1398 \$1201 \$1935 VPWR VPWR VGND sky130_fd_sc_hd__dfrtp_1
X$112 VGND \$93 \$1636 \$1201 \$1635 VPWR VPWR VGND sky130_fd_sc_hd__dfrtp_1
X$113 VGND \$93 \$2244 \$1201 \$2260 VPWR VPWR VGND sky130_fd_sc_hd__dfrtp_1
X$114 VGND \$93 \$1488 \$1201 \$1849 VPWR VPWR VGND sky130_fd_sc_hd__dfrtp_1
X$115 VGND \$93 \$5531 \$5034 \$5545 VPWR VPWR VGND sky130_fd_sc_hd__dfrtp_1
X$116 VGND \$93 \$5748 \$5002 \$5763 VPWR VPWR VGND sky130_fd_sc_hd__dfrtp_1
X$117 VGND \$93 \$5651 \$5034 \$5670 VPWR VPWR VGND sky130_fd_sc_hd__dfrtp_1
X$118 VGND \$93 \$5648 \$5002 \$5761 VPWR VPWR VGND sky130_fd_sc_hd__dfrtp_1
X$119 VGND \$93 \$5204 \$5034 \$5163 VPWR VPWR VGND sky130_fd_sc_hd__dfrtp_1
X$120 VGND \$93 \$5226 \$5034 \$5260 VPWR VPWR VGND sky130_fd_sc_hd__dfrtp_1
X$121 VGND \$93 \$5649 \$5002 \$5700 VPWR VPWR VGND sky130_fd_sc_hd__dfrtp_1
X$122 VPWR VGND VPWR \$5235 \$93 VGND sky130_fd_sc_hd__inv_2
X$123 VGND \$93 \$5301 \$5034 \$5248 VPWR VPWR VGND sky130_fd_sc_hd__dfstp_1
X$124 VGND wb_rstn_i \$93 VPWR VPWR VGND sky130_fd_sc_hd__buf_12
X$125 VPWR VGND VPWR \$245 \$94 VGND sky130_fd_sc_hd__inv_2
X$126 VPWR VGND VPWR \$249 \$95 VGND sky130_fd_sc_hd__inv_2
X$127 VPWR \$96 VGND \$655 VPWR \$308 VGND sky130_fd_sc_hd__nor2_1
X$128 VPWR \$97 VGND \$655 VPWR \$235 VGND sky130_fd_sc_hd__nor2_1
X$129 VGND \$98 \$1395 \$780 \$235 VPWR VPWR VGND sky130_fd_sc_hd__mux2_2
X$130 VPWR VGND VPWR \$100 \$99 VGND sky130_fd_sc_hd__inv_2
X$131 VPWR \$99 VGND VPWR \$236 VGND sky130_fd_sc_hd__clkbuf_1
X$132 VPWR \$101 VGND VPWR \$225 VGND sky130_fd_sc_hd__clkbuf_1
X$133 VPWR VGND VPWR \$102 \$228 VGND sky130_fd_sc_hd__inv_2
X$134 VPWR VGND VPWR \$1654 \$103 VGND sky130_fd_sc_hd__inv_2
X$135 VPWR VGND \$103 VPWR \$865 VGND sky130_fd_sc_hd__buf_2
X$136 VGND \$280 \$104 \$293 \$273 VPWR VPWR VGND sky130_fd_sc_hd__mux2_1
X$137 VPWR VGND VPWR \$312 \$104 VGND sky130_fd_sc_hd__inv_2
X$138 VGND \$655 \$104 \$237 \$238 VPWR VPWR VGND sky130_fd_sc_hd__dfstp_1
X$139 VPWR VGND VPWR \$389 \$105 VGND sky130_fd_sc_hd__inv_2
X$140 VPWR VGND \$202 \$183 \$105 \$212 \$195 VPWR VGND sky130_fd_sc_hd__a22o_1
X$141 VGND \$206 \$105 \$239 \$212 VPWR VPWR VGND sky130_fd_sc_hd__dfrtp_1
X$142 VGND \$655 \$106 \$239 \$332 VPWR VPWR VGND sky130_fd_sc_hd__dfrtp_2
X$143 VPWR VGND VPWR \$782 \$106 VGND sky130_fd_sc_hd__inv_2
X$144 VPWR VGND \$202 \$293 \$106 \$332 \$195 VPWR VGND sky130_fd_sc_hd__a22o_1
X$145 VPWR VGND VPWR \$360 \$107 VGND sky130_fd_sc_hd__inv_2
X$146 VGND \$206 \$107 \$239 \$313 VPWR VPWR VGND sky130_fd_sc_hd__dfstp_1
X$147 VPWR VGND \$202 \$200 \$107 \$313 \$195 VPWR VGND sky130_fd_sc_hd__a22o_1
X$148 VPWR VGND VPWR \$314 \$108 VGND sky130_fd_sc_hd__inv_2
X$149 VPWR VGND \$202 \$281 \$108 \$240 \$195 VPWR VGND sky130_fd_sc_hd__a22o_1
X$150 VGND \$206 \$108 \$239 \$240 VPWR VPWR VGND sky130_fd_sc_hd__dfrtp_1
X$151 VGND \$206 \$109 \$239 \$203 VPWR VPWR VGND sky130_fd_sc_hd__dfrtp_1
X$152 VPWR \$274 \$109 VPWR VGND VGND sky130_fd_sc_hd__clkinv_2
X$153 VPWR VGND \$202 \$294 \$109 \$203 \$195 VPWR VGND sky130_fd_sc_hd__a22o_1
X$154 VPWR VGND VPWR \$557 \$110 VGND sky130_fd_sc_hd__inv_2
X$155 VGND \$655 \$110 \$239 \$538 VPWR VPWR VGND sky130_fd_sc_hd__dfstp_1
X$156 VPWR VGND \$545 \$293 \$110 \$538 \$525 VPWR VGND sky130_fd_sc_hd__a22o_1
X$157 VGND \$655 \$111 \$239 \$683 VPWR VPWR VGND sky130_fd_sc_hd__dfrtp_2
X$158 VPWR VGND VPWR \$1017 \$111 VGND sky130_fd_sc_hd__inv_2
X$159 VPWR VGND \$545 \$200 \$111 \$683 \$525 VPWR VGND sky130_fd_sc_hd__a22o_1
X$160 VPWR VGND VPWR \$539 \$112 VGND sky130_fd_sc_hd__inv_2
X$161 VPWR VGND \$545 \$281 \$112 \$344 \$525 VPWR VGND sky130_fd_sc_hd__a22o_1
X$162 VGND \$206 \$112 \$241 \$344 VPWR VPWR VGND sky130_fd_sc_hd__dfrtp_1
X$163 VGND \$655 \$113 \$241 \$654 VPWR VPWR VGND sky130_fd_sc_hd__dfstp_2
X$164 VPWR VGND VPWR \$1096 \$113 VGND sky130_fd_sc_hd__inv_2
X$165 VPWR VGND \$545 \$294 \$113 \$654 \$525 VPWR VGND sky130_fd_sc_hd__a22o_1
X$166 VPWR VGND VPWR \$333 \$114 VGND sky130_fd_sc_hd__inv_2
X$167 VGND \$206 \$114 \$241 \$220 VPWR VPWR VGND sky130_fd_sc_hd__dfstp_1
X$168 VPWR VGND \$204 \$183 \$114 \$220 \$205 VPWR VGND sky130_fd_sc_hd__a22o_1
X$169 VPWR VGND VPWR \$334 \$115 VGND sky130_fd_sc_hd__inv_2
X$170 VGND \$206 \$115 \$241 \$275 VPWR VPWR VGND sky130_fd_sc_hd__dfstp_1
X$171 VPWR VGND \$204 \$293 \$115 \$275 \$205 VPWR VGND sky130_fd_sc_hd__a22o_1
X$172 VPWR VGND VPWR \$335 \$116 VGND sky130_fd_sc_hd__inv_2
X$173 VGND \$206 \$116 \$241 \$270 VPWR VPWR VGND sky130_fd_sc_hd__dfstp_1
X$174 VPWR VGND \$204 \$281 \$116 \$270 \$205 VPWR VGND sky130_fd_sc_hd__a22o_1
X$175 VPWR VGND \$204 \$184 \$117 \$213 \$205 VPWR VGND sky130_fd_sc_hd__a22o_1
X$176 VPWR VGND VPWR \$256 \$117 VGND sky130_fd_sc_hd__inv_2
X$177 VGND \$206 \$117 \$241 \$213 VPWR VPWR VGND sky130_fd_sc_hd__dfstp_1
X$178 VPWR VGND VPWR \$412 \$118 VGND sky130_fd_sc_hd__inv_2
X$179 VGND \$206 \$118 \$196 \$362 VPWR VPWR VGND sky130_fd_sc_hd__dfstp_1
X$180 VPWR VGND \$282 \$183 \$118 \$362 \$283 VPWR VGND sky130_fd_sc_hd__a22o_1
X$181 VPWR VGND VPWR \$284 \$119 VGND sky130_fd_sc_hd__inv_2
X$182 VGND \$206 \$119 \$196 \$242 VPWR VPWR VGND sky130_fd_sc_hd__dfstp_1
X$183 VPWR VGND \$282 \$184 \$119 \$242 \$283 VPWR VGND sky130_fd_sc_hd__a22o_1
X$184 VPWR \$496 \$120 VPWR VGND VGND sky130_fd_sc_hd__clkinv_2
X$185 VGND \$206 \$120 \$196 \$447 VPWR VPWR VGND sky130_fd_sc_hd__dfstp_1
X$186 VPWR VGND \$282 \$411 \$120 \$447 \$283 VPWR VGND sky130_fd_sc_hd__a22o_1
X$187 VPWR VGND VPWR \$185 \$121 VGND sky130_fd_sc_hd__inv_2
X$188 VGND \$206 \$121 \$196 \$317 VPWR VPWR VGND sky130_fd_sc_hd__dfstp_1
X$189 VPWR VGND \$282 \$354 \$121 \$317 \$283 VPWR VGND sky130_fd_sc_hd__a22o_1
X$190 VPWR VGND VPWR \$364 \$122 VGND sky130_fd_sc_hd__inv_2
X$191 VGND \$206 \$122 \$198 \$199 VPWR VPWR VGND sky130_fd_sc_hd__dfstp_1
X$192 VPWR VGND \$229 \$183 \$122 \$199 \$230 VPWR VGND sky130_fd_sc_hd__a22o_1
X$193 VPWR VGND VPWR \$214 \$123 VGND sky130_fd_sc_hd__inv_2
X$194 VGND \$206 \$123 \$198 \$186 VPWR VPWR VGND sky130_fd_sc_hd__dfstp_1
X$195 VPWR VGND \$229 \$200 \$123 \$186 \$230 VPWR VGND sky130_fd_sc_hd__a22o_1
X$196 VPWR VGND VPWR \$295 \$124 VGND sky130_fd_sc_hd__inv_2
X$197 VGND \$206 \$124 \$198 \$231 VPWR VPWR VGND sky130_fd_sc_hd__dfstp_1
X$198 VPWR VGND \$229 \$281 \$124 \$231 \$230 VPWR VGND sky130_fd_sc_hd__a22o_1
X$199 VPWR VGND VPWR \$476 \$125 VGND sky130_fd_sc_hd__inv_2
X$200 VGND \$206 \$125 \$198 \$404 VPWR VPWR VGND sky130_fd_sc_hd__dfstp_1
X$201 VPWR VGND \$229 \$294 \$125 \$404 \$230 VPWR VGND sky130_fd_sc_hd__a22o_1
X$202 VPWR \$286 \$126 VPWR VGND VGND sky130_fd_sc_hd__clkinv_2
X$203 VGND \$206 \$126 \$198 \$257 VPWR VPWR VGND sky130_fd_sc_hd__dfstp_1
X$204 VPWR VGND \$229 \$184 \$126 \$257 \$230 VPWR VGND sky130_fd_sc_hd__a22o_1
X$205 VPWR VGND VPWR \$403 \$127 VGND sky130_fd_sc_hd__inv_2
X$206 VGND \$206 \$127 \$198 \$383 VPWR VPWR VGND sky130_fd_sc_hd__dfstp_1
X$207 VPWR VGND \$229 \$411 \$127 \$383 \$230 VPWR VGND sky130_fd_sc_hd__a22o_1
X$208 VPWR VGND VPWR \$498 \$128 VGND sky130_fd_sc_hd__inv_2
X$209 VGND \$206 \$128 \$198 \$425 VPWR VPWR VGND sky130_fd_sc_hd__dfstp_1
X$210 VPWR VGND \$229 \$354 \$128 \$425 \$230 VPWR VGND sky130_fd_sc_hd__a22o_1
X$211 VGND \$208 \$129 \$183 \$277 VPWR VPWR VGND sky130_fd_sc_hd__mux2_1
X$212 VPWR VGND VPWR \$303 \$129 VGND sky130_fd_sc_hd__inv_2
X$213 VGND \$206 \$129 \$243 \$187 VPWR VPWR VGND sky130_fd_sc_hd__dfstp_1
X$214 VGND \$357 \$130 \$293 \$277 VPWR VPWR VGND sky130_fd_sc_hd__mux2_1
X$215 VPWR VGND VPWR \$508 \$130 VGND sky130_fd_sc_hd__inv_2
X$216 VGND \$206 \$130 \$243 \$366 VPWR VPWR VGND sky130_fd_sc_hd__dfstp_1
X$217 VGND \$132 \$254 \$453 VPWR VPWR VGND sky130_fd_sc_hd__dfxtp_1
X$218 VPWR VGND VPWR \$554 \$132 VGND sky130_fd_sc_hd__inv_2
X$219 VPWR VGND \$301 \$542 \$132 \$453 \$306 VPWR VGND sky130_fd_sc_hd__a22o_1
X$220 VPWR VGND pwr_ctrl_out[3] VPWR \$132 VGND sky130_fd_sc_hd__buf_2
X$221 VGND \$133 \$254 \$234 VPWR VPWR VGND sky130_fd_sc_hd__dfxtp_1
X$222 VPWR VGND \$133 \$269 VPWR VGND sky130_fd_sc_hd__clkinv_4
X$223 VPWR VGND \$301 \$1171 \$133 \$234 \$306 VPWR VGND sky130_fd_sc_hd__a22o_1
X$224 VGND \$134 \$254 \$309 VPWR VPWR VGND sky130_fd_sc_hd__dfxtp_1
X$225 VPWR VGND VPWR \$1121 \$134 VGND sky130_fd_sc_hd__inv_2
X$226 VPWR VGND \$301 \$1179 \$134 \$309 \$306 VPWR VGND sky130_fd_sc_hd__a22o_1
X$227 VPWR VGND sram_ro_addr[1] VPWR \$182 VGND sky130_fd_sc_hd__buf_2
X$228 VGND \$136 \$1394 \$1333 \$235 VPWR VPWR VGND sky130_fd_sc_hd__mux2_2
X$229 VGND \$655 \$137 \$239 \$640 VPWR VPWR VGND sky130_fd_sc_hd__dfrtp_2
X$230 VPWR VGND VPWR \$1031 \$137 VGND sky130_fd_sc_hd__inv_2
X$231 VPWR VGND \$545 \$183 \$137 \$640 \$525 VPWR VGND sky130_fd_sc_hd__a22o_1
X$232 VPWR VGND VPWR \$615 \$138 VGND sky130_fd_sc_hd__inv_2
X$233 VPWR VGND \$545 \$184 \$138 \$558 \$525 VPWR VGND sky130_fd_sc_hd__a22o_1
X$234 VGND \$655 \$138 \$241 \$558 VPWR VPWR VGND sky130_fd_sc_hd__dfrtp_1
X$235 VPWR \$588 \$139 VPWR VGND VGND sky130_fd_sc_hd__clkinv_2
X$236 VGND \$206 \$139 \$241 \$474 VPWR VPWR VGND sky130_fd_sc_hd__dfstp_1
X$237 VPWR VGND \$204 \$294 \$139 \$474 \$205 VPWR VGND sky130_fd_sc_hd__a22o_1
X$238 VGND \$206 \$140 \$196 \$197 VPWR VPWR VGND sky130_fd_sc_hd__dfstp_1
X$239 VPWR VGND VPWR \$315 \$140 VGND sky130_fd_sc_hd__inv_2
X$240 VPWR VGND \$282 \$293 \$140 \$197 \$283 VPWR VGND sky130_fd_sc_hd__a22o_1
X$241 VPWR VGND VPWR \$507 \$141 VGND sky130_fd_sc_hd__inv_2
X$242 VGND \$206 \$141 \$196 \$446 VPWR VPWR VGND sky130_fd_sc_hd__dfstp_1
X$243 VPWR VGND \$282 \$200 \$141 \$446 \$283 VPWR VGND sky130_fd_sc_hd__a22o_1
X$244 VPWR VGND VPWR \$316 \$142 VGND sky130_fd_sc_hd__inv_2
X$245 VGND \$206 \$142 \$196 \$276 VPWR VPWR VGND sky130_fd_sc_hd__dfstp_1
X$246 VPWR VGND \$282 \$281 \$142 \$276 \$283 VPWR VGND sky130_fd_sc_hd__a22o_1
X$247 VPWR VGND VPWR \$338 \$143 VGND sky130_fd_sc_hd__inv_2
X$248 VPWR VGND \$282 \$294 \$143 \$207 \$283 VPWR VGND sky130_fd_sc_hd__a22o_1
X$249 VGND \$206 \$143 \$196 \$207 VPWR VPWR VGND sky130_fd_sc_hd__dfrtp_1
X$250 VPWR VGND VPWR \$527 \$144 VGND sky130_fd_sc_hd__inv_2
X$251 VGND \$206 \$144 \$196 \$378 VPWR VPWR VGND sky130_fd_sc_hd__dfstp_1
X$252 VPWR VGND \$229 \$293 \$144 \$378 \$230 VPWR VGND sky130_fd_sc_hd__a22o_1
X$253 VGND \$946 \$145 \$183 \$1046 VPWR VPWR VGND sky130_fd_sc_hd__mux2_1
X$254 VPWR VGND VPWR \$1022 \$145 VGND sky130_fd_sc_hd__inv_2
X$255 VGND \$655 \$145 \$605 \$928 VPWR VPWR VGND sky130_fd_sc_hd__dfstp_1
X$256 VPWR VGND VPWR \$263 \$146 VGND sky130_fd_sc_hd__inv_2
X$257 VPWR VGND \$745 VPWR \$695 \$147 VGND sky130_fd_sc_hd__nor2_2
X$258 VGND \$322 \$322 \$852 \$895 \$903 \$147 VPWR VPWR VGND
+ sky130_fd_sc_hd__a221o_2
X$259 VPWR \$903 VPWR VGND \$1109 \$973 \$147 VGND sky130_fd_sc_hd__or3_2
X$260 VGND \$808 \$973 \$914 \$147 \$322 \$1011 VPWR VPWR VGND
+ sky130_fd_sc_hd__a32o_2
X$261 VGND \$289 \$147 \$895 \$322 VPWR VPWR VGND sky130_fd_sc_hd__mux2_1
X$262 VGND \$147 \$534 \$694 \$300 VPWR VPWR VGND sky130_fd_sc_hd__mux2_1
X$263 VPWR VGND serial_resetn VPWR \$380 VGND sky130_fd_sc_hd__buf_2
X$264 VPWR \$1371 VPWR VGND \$1034 \$1329 \$149 VGND sky130_fd_sc_hd__or3b_1
X$265 VPWR VGND VPWR \$244 \$150 VGND sky130_fd_sc_hd__inv_2
X$266 VPWR VGND VPWR \$264 \$151 VGND sky130_fd_sc_hd__inv_2
X$267 VPWR VGND VPWR \$210 \$152 VGND sky130_fd_sc_hd__inv_2
X$268 VPWR \$255 \$153 VPWR VGND VGND sky130_fd_sc_hd__clkinv_2
X$269 VPWR \$328 VGND VPWR \$155 \$235 VGND sky130_fd_sc_hd__and2b_1
X$270 VPWR VGND VPWR \$258 \$156 VGND sky130_fd_sc_hd__inv_2
X$271 VPWR VGND VPWR \$285 \$157 VGND sky130_fd_sc_hd__inv_2
X$272 VPWR VGND \$158 \$488 VPWR VGND sky130_fd_sc_hd__clkinv_4
X$273 VPWR VGND VPWR \$221 \$159 VGND sky130_fd_sc_hd__inv_2
X$274 VPWR VGND VPWR \$509 \$160 VGND sky130_fd_sc_hd__inv_2
X$275 VPWR VGND VPWR \$259 \$161 VGND sky130_fd_sc_hd__inv_2
X$276 VPWR VGND VPWR \$260 \$162 VGND sky130_fd_sc_hd__inv_2
X$277 VPWR VGND VPWR \$261 \$163 VGND sky130_fd_sc_hd__inv_2
X$278 VPWR VGND VPWR \$356 \$164 VGND sky130_fd_sc_hd__inv_2
X$279 VPWR VGND VPWR \$190 \$165 VGND sky130_fd_sc_hd__inv_2
X$280 VPWR VGND VPWR \$415 \$166 VGND sky130_fd_sc_hd__inv_2
X$281 VPWR VGND VPWR \$265 \$167 VGND sky130_fd_sc_hd__inv_2
X$282 VPWR \$215 \$168 VPWR VGND VGND sky130_fd_sc_hd__clkinv_2
X$283 VPWR VGND VPWR \$216 \$169 VGND sky130_fd_sc_hd__inv_2
X$284 VPWR \$217 \$170 VPWR VGND VGND sky130_fd_sc_hd__clkinv_2
X$285 VPWR VGND VPWR \$189 \$171 VGND sky130_fd_sc_hd__inv_2
X$286 VPWR VGND VPWR \$267 \$172 VGND sky130_fd_sc_hd__inv_2
X$287 VPWR \$253 \$173 VPWR VGND VGND sky130_fd_sc_hd__clkinv_2
X$288 VPWR \$763 \$174 VPWR VGND VGND sky130_fd_sc_hd__clkinv_2
X$289 VPWR \$563 \$175 VPWR VGND VGND sky130_fd_sc_hd__clkinv_2
X$290 VPWR \$635 \$176 VPWR VGND VGND sky130_fd_sc_hd__clkinv_2
X$291 VPWR VGND VPWR \$191 \$177 VGND sky130_fd_sc_hd__inv_2
X$292 VPWR \$764 \$178 VPWR VGND VGND sky130_fd_sc_hd__clkinv_2
X$293 VPWR pad_flash_clk VGND VPWR \$371 VGND sky130_fd_sc_hd__clkbuf_1
X$294 VPWR ser_tx VPWR VGND \$2620 VGND sky130_fd_sc_hd__buf_4
X$295 VPWR VGND VPWR VGND sky130_fd_sc_hd__decap_3
X$296 VPWR VPWR VGND VGND sky130_fd_sc_hd__decap_6
X$297 VPWR VGND VPWR VGND sky130_fd_sc_hd__fill_1
X$298 VGND \$3483 \$3342 \$2996 \$1998 \$2336 \$3470 VPWR VPWR VGND
+ sky130_fd_sc_hd__a311oi_2
X$299 VPWR VGND sky130_fd_sc_hd__tapvpwrvgnd_1
X$300 VPWR \$2336 \$3358 VGND \$3470 VPWR \$1962 VGND sky130_fd_sc_hd__nor3_1
X$301 VPWR VPWR VGND VGND sky130_fd_sc_hd__decap_8
X$302 VPWR VGND VPWR VGND sky130_fd_sc_hd__fill_1
X$303 VGND \$2410 \$3411 \$2678 \$4034 \$3248 VPWR VPWR VGND
+ sky130_fd_sc_hd__or4_4
X$304 VPWR VPWR VGND VGND sky130_fd_sc_hd__decap_6
X$305 VPWR VGND VPWR VGND sky130_fd_sc_hd__fill_1
X$306 VGND \$2929 \$3452 \$3471 \$3439 \$3100 VPWR VPWR VGND
+ sky130_fd_sc_hd__a31o_1
X$307 VGND \$3153 \$3452 \$3440 \$3472 \$2817 VPWR VPWR VGND
+ sky130_fd_sc_hd__a31o_1
X$308 VGND \$3154 \$3452 \$3440 \$3484 \$2680 VPWR VPWR VGND
+ sky130_fd_sc_hd__a31o_1
X$309 VPWR VGND VPWR VGND sky130_fd_sc_hd__decap_4
X$310 VPWR VGND VPWR VGND sky130_fd_sc_hd__fill_1
X$311 VPWR VGND sky130_fd_sc_hd__tapvpwrvgnd_1
X$312 VGND \$3259 \$3452 \$3485 \$3440 \$2874 VPWR VPWR VGND
+ sky130_fd_sc_hd__a31o_1
X$313 VPWR \$3453 \$3259 VGND \$3432 VPWR \$3486 \$3473 VGND
+ sky130_fd_sc_hd__or4_2
X$314 VPWR VGND VPWR VGND sky130_fd_sc_hd__decap_4
X$315 VPWR \$3487 VGND \$3141 \$1963 VPWR VGND sky130_fd_sc_hd__or2_1
X$316 VPWR VPWR VGND VGND sky130_fd_sc_hd__decap_6
X$317 VPWR \$3302 VGND \$3433 \$3474 VPWR VGND sky130_fd_sc_hd__or2_1
X$318 VPWR VPWR VGND VGND sky130_fd_sc_hd__decap_12
X$319 VPWR VPWR VGND VGND sky130_fd_sc_hd__decap_8
X$320 VPWR VGND VPWR VGND sky130_fd_sc_hd__fill_1
X$321 VPWR VGND sky130_fd_sc_hd__tapvpwrvgnd_1
X$322 VPWR VPWR VGND VGND sky130_fd_sc_hd__decap_12
X$323 VPWR VGND VPWR VGND sky130_fd_sc_hd__fill_2
X$324 VPWR VGND \$3284 \$200 \$3475 \$3457 \$3304 VPWR VGND
+ sky130_fd_sc_hd__a22o_1
X$325 VPWR VPWR VGND VGND sky130_fd_sc_hd__decap_12
X$326 VPWR VPWR VGND VGND sky130_fd_sc_hd__decap_12
X$327 VPWR VPWR VGND VGND sky130_fd_sc_hd__decap_8
X$328 VPWR VGND VPWR VGND sky130_fd_sc_hd__fill_2
X$329 VPWR VGND sky130_fd_sc_hd__tapvpwrvgnd_1
X$330 VPWR VPWR VGND VGND sky130_fd_sc_hd__decap_6
X$331 VPWR VGND VPWR \$3435 \$3458 VGND sky130_fd_sc_hd__inv_2
X$332 VPWR VPWR VGND VGND sky130_fd_sc_hd__decap_12
X$333 VPWR VPWR VGND VGND sky130_fd_sc_hd__decap_12
X$334 VPWR VPWR VGND VGND sky130_fd_sc_hd__decap_12
X$335 VPWR VPWR VGND VGND sky130_fd_sc_hd__decap_8
X$336 VPWR VGND VPWR VGND sky130_fd_sc_hd__fill_2
X$337 VPWR VGND sky130_fd_sc_hd__tapvpwrvgnd_1
X$338 VPWR VPWR VGND VGND sky130_fd_sc_hd__decap_12
X$339 VPWR VPWR VGND VGND sky130_fd_sc_hd__decap_12
X$340 VPWR VPWR VGND VGND sky130_fd_sc_hd__decap_12
X$341 VPWR VPWR VGND VGND sky130_fd_sc_hd__decap_12
X$342 VPWR VPWR VGND VGND sky130_fd_sc_hd__decap_6
X$343 VPWR VGND VPWR VGND sky130_fd_sc_hd__fill_1
X$344 VPWR VGND sky130_fd_sc_hd__tapvpwrvgnd_1
X$345 VPWR VPWR VGND VGND sky130_fd_sc_hd__decap_12
X$346 VPWR VPWR VGND VGND sky130_fd_sc_hd__decap_12
X$347 VPWR VPWR VGND VGND sky130_fd_sc_hd__decap_12
X$348 VPWR VPWR VGND VGND sky130_fd_sc_hd__decap_12
X$349 VPWR VPWR VGND VGND sky130_fd_sc_hd__decap_6
X$350 VPWR VGND VPWR VGND sky130_fd_sc_hd__fill_1