*SPICE netlist created from verilog structural netlist module mprj_logic_high by vlog2Spice (qflow)
*This file may contain array delimiters, not for use in simulation.

.include /home/marwan/klayout_lvs/lvs/test_cases/mprj_logic_high/sky130_fd_sc_hd.spice

.subckt mprj_logic_high vccd1 vssd1 HI[0] HI[1] HI[2] HI[3] HI[4]
+ HI[5] HI[6] HI[7] HI[8] HI[9] HI[10] HI[11] HI[12]
+ HI[13] HI[14] HI[15] HI[16] HI[17] HI[18] HI[19] HI[20]
+ HI[21] HI[22] HI[23] HI[24] HI[25] HI[26] HI[27] HI[28]
+ HI[29] HI[30] HI[31] HI[32] HI[33] HI[34] HI[35] HI[36]
+ HI[37] HI[38] HI[39] HI[40] HI[41] HI[42] HI[43] HI[44]
+ HI[45] HI[46] HI[47] HI[48] HI[49] HI[50] HI[51] HI[52]
+ HI[53] HI[54] HI[55] HI[56] HI[57] HI[58] HI[59] HI[60]
+ HI[61] HI[62] HI[63] HI[64] HI[65] HI[66] HI[67] HI[68]
+ HI[69] HI[70] HI[71] HI[72] HI[73] HI[74] HI[75] HI[76]
+ HI[77] HI[78] HI[79] HI[80] HI[81] HI[82] HI[83] HI[84]
+ HI[85] HI[86] HI[87] HI[88] HI[89] HI[90] HI[91] HI[92]
+ HI[93] HI[94] HI[95] HI[96] HI[97] HI[98] HI[99] HI[100]
+ HI[101] HI[102] HI[103] HI[104] HI[105] HI[106] HI[107] HI[108]
+ HI[109] HI[110] HI[111] HI[112] HI[113] HI[114] HI[115] HI[116]
+ HI[117] HI[118] HI[119] HI[120] HI[121] HI[122] HI[123] HI[124]
+ HI[125] HI[126] HI[127] HI[128] HI[129] HI[130] HI[131] HI[132]
+ HI[133] HI[134] HI[135] HI[136] HI[137] HI[138] HI[139] HI[140]
+ HI[141] HI[142] HI[143] HI[144] HI[145] HI[146] HI[147] HI[148]
+ HI[149] HI[150] HI[151] HI[152] HI[153] HI[154] HI[155] HI[156]
+ HI[157] HI[158] HI[159] HI[160] HI[161] HI[162] HI[163] HI[164]
+ HI[165] HI[166] HI[167] HI[168] HI[169] HI[170] HI[171] HI[172]
+ HI[173] HI[174] HI[175] HI[176] HI[177] HI[178] HI[179] HI[180]
+ HI[181] HI[182] HI[183] HI[184] HI[185] HI[186] HI[187] HI[188]
+ HI[189] HI[190] HI[191] HI[192] HI[193] HI[194] HI[195] HI[196]
+ HI[197] HI[198] HI[199] HI[200] HI[201] HI[202] HI[203] HI[204]
+ HI[205] HI[206] HI[207] HI[208] HI[209] HI[210] HI[211] HI[212]
+ HI[213] HI[214] HI[215] HI[216] HI[217] HI[218] HI[219] HI[220]
+ HI[221] HI[222] HI[223] HI[224] HI[225] HI[226] HI[227] HI[228]
+ HI[229] HI[230] HI[231] HI[232] HI[233] HI[234] HI[235] HI[236]
+ HI[237] HI[238] HI[239] HI[240] HI[241] HI[242] HI[243] HI[244]
+ HI[245] HI[246] HI[247] HI[248] HI[249] HI[250] HI[251] HI[252]
+ HI[253] HI[254] HI[255] HI[256] HI[257] HI[258] HI[259] HI[260]
+ HI[261] HI[262] HI[263] HI[264] HI[265] HI[266] HI[267] HI[268]
+ HI[269] HI[270] HI[271] HI[272] HI[273] HI[274] HI[275] HI[276]
+ HI[277] HI[278] HI[279] HI[280] HI[281] HI[282] HI[283] HI[284]
+ HI[285] HI[286] HI[287] HI[288] HI[289] HI[290] HI[291] HI[292]
+ HI[293] HI[294] HI[295] HI[296] HI[297] HI[298] HI[299] HI[300]
+ HI[301] HI[302] HI[303] HI[304] HI[305] HI[306] HI[307] HI[308]
+ HI[309] HI[310] HI[311] HI[312] HI[313] HI[314] HI[315] HI[316]
+ HI[317] HI[318] HI[319] HI[320] HI[321] HI[322] HI[323] HI[324]
+ HI[325] HI[326] HI[327] HI[328] HI[329] HI[330] HI[331] HI[332]
+ HI[333] HI[334] HI[335] HI[336] HI[337] HI[338] HI[339] HI[340]
+ HI[341] HI[342] HI[343] HI[344] HI[345] HI[346] HI[347] HI[348]
+ HI[349] HI[350] HI[351] HI[352] HI[353] HI[354] HI[355] HI[356]
+ HI[357] HI[358] HI[359] HI[360] HI[361] HI[362] HI[363] HI[364]
+ HI[365] HI[366] HI[367] HI[368] HI[369] HI[370] HI[371] HI[372]
+ HI[373] HI[374] HI[375] HI[376] HI[377] HI[378] HI[379] HI[380]
+ HI[381] HI[382] HI[383] HI[384] HI[385] HI[386] HI[387] HI[388]
+ HI[389] HI[390] HI[391] HI[392] HI[393] HI[394] HI[395] HI[396]
+ HI[397] HI[398] HI[399] HI[400] HI[401] HI[402] HI[403] HI[404]
+ HI[405] HI[406] HI[407] HI[408] HI[409] HI[410] HI[411] HI[412]
+ HI[413] HI[414] HI[415] HI[416] HI[417] HI[418] HI[419] HI[420]
+ HI[421] HI[422] HI[423] HI[424] HI[425] HI[426] HI[427] HI[428]
+ HI[429] HI[430] HI[431] HI[432] HI[433] HI[434] HI[435] HI[436]
+ HI[437] HI[438] HI[439] HI[440] HI[441] HI[442] HI[443] HI[444]
+ HI[445] HI[446] HI[447] HI[448] HI[449] HI[450] HI[451] HI[452]
+ HI[453] HI[454] HI[455] HI[456] HI[457] HI[458] HI[459] HI[460]
+ HI[461] HI[462] 

XFILLER_0_111 vssd1 vssd1 vccd1 vccd1 sky130_fd_sc_hd__fill_1
XFILLER_0_119 vssd1 vssd1 vccd1 vccd1 sky130_fd_sc_hd__fill_2
XFILLER_0_139 vssd1 vssd1 vccd1 vccd1 sky130_fd_sc_hd__fill_1
XFILLER_0_141 vssd1 vssd1 vccd1 vccd1 sky130_fd_sc_hd__fill_1
XFILLER_0_166 vssd1 vssd1 vccd1 vccd1 sky130_fd_sc_hd__fill_2
XFILLER_0_172 vssd1 vssd1 vccd1 vccd1 sky130_fd_sc_hd__fill_1
XFILLER_0_194 vssd1 vssd1 vccd1 vccd1 sky130_fd_sc_hd__fill_2
XFILLER_0_228 vssd1 vssd1 vccd1 vccd1 sky130_fd_sc_hd__fill_2
XFILLER_0_245 vssd1 vssd1 vccd1 vccd1 sky130_fd_sc_hd__fill_1
XFILLER_0_259 vssd1 vssd1 vccd1 vccd1 sky130_fd_sc_hd__fill_2
XFILLER_0_279 vssd1 vssd1 vccd1 vccd1 sky130_fd_sc_hd__fill_1
XFILLER_0_284 vssd1 vssd1 vccd1 vccd1 sky130_fd_sc_hd__fill_1
XFILLER_0_29 vssd1 vssd1 vccd1 vccd1 sky130_fd_sc_hd__fill_2
XFILLER_0_3 vssd1 vssd1 vccd1 vccd1 sky130_fd_sc_hd__fill_1
XFILLER_0_306 vssd1 vssd1 vccd1 vccd1 sky130_fd_sc_hd__fill_2
XFILLER_0_309 vssd1 vssd1 vccd1 vccd1 sky130_fd_sc_hd__fill_1
XFILLER_0_334 vssd1 vssd1 vccd1 vccd1 sky130_fd_sc_hd__fill_2
XFILLER_0_421 vssd1 vssd1 vccd1 vccd1 sky130_fd_sc_hd__fill_1
XFILLER_0_446 vssd1 vssd1 vccd1 vccd1 sky130_fd_sc_hd__fill_2
XFILLER_0_458 vssd1 vssd1 vccd1 vccd1 sky130_fd_sc_hd__fill_1
XFILLER_0_474 vssd1 vssd1 vccd1 vccd1 sky130_fd_sc_hd__fill_2
XFILLER_0_483 vssd1 vssd1 vccd1 vccd1 sky130_fd_sc_hd__fill_1
XFILLER_0_502 vssd1 vssd1 vccd1 vccd1 sky130_fd_sc_hd__fill_2
XFILLER_0_55 vssd1 vssd1 vccd1 vccd1 sky130_fd_sc_hd__fill_1
XFILLER_0_57 vssd1 vssd1 vccd1 vccd1 sky130_fd_sc_hd__fill_1
XFILLER_0_601 vssd1 vssd1 vccd1 vccd1 sky130_fd_sc_hd__decap_12
XFILLER_0_613 vssd1 vssd1 vccd1 vccd1 sky130_fd_sc_hd__decap_3
XFILLER_0_617 vssd1 vssd1 vccd1 vccd1 sky130_fd_sc_hd__decap_12
XFILLER_0_629 vssd1 vssd1 vccd1 vccd1 sky130_fd_sc_hd__decap_12
XFILLER_0_641 vssd1 vssd1 vccd1 vccd1 sky130_fd_sc_hd__decap_3
XFILLER_0_645 vssd1 vssd1 vccd1 vccd1 sky130_fd_sc_hd__decap_12
XFILLER_0_657 vssd1 vssd1 vccd1 vccd1 sky130_fd_sc_hd__decap_12
XFILLER_0_669 vssd1 vssd1 vccd1 vccd1 sky130_fd_sc_hd__decap_3
XFILLER_0_67 vssd1 vssd1 vccd1 vccd1 sky130_fd_sc_hd__fill_1
XFILLER_0_673 vssd1 vssd1 vccd1 vccd1 sky130_fd_sc_hd__decap_12
XFILLER_0_685 vssd1 vssd1 vccd1 vccd1 sky130_fd_sc_hd__decap_12
XFILLER_0_697 vssd1 vssd1 vccd1 vccd1 sky130_fd_sc_hd__decap_3
XFILLER_0_701 vssd1 vssd1 vccd1 vccd1 sky130_fd_sc_hd__decap_12
XFILLER_0_713 vssd1 vssd1 vccd1 vccd1 sky130_fd_sc_hd__decap_12
XFILLER_0_725 vssd1 vssd1 vccd1 vccd1 sky130_fd_sc_hd__decap_3
XFILLER_0_729 vssd1 vssd1 vccd1 vccd1 sky130_fd_sc_hd__fill_2
XFILLER_0_77 vssd1 vssd1 vccd1 vccd1 sky130_fd_sc_hd__fill_1
XFILLER_0_94 vssd1 vssd1 vccd1 vccd1 sky130_fd_sc_hd__fill_2
XFILLER_1_108 vssd1 vssd1 vccd1 vccd1 sky130_fd_sc_hd__decap_4
XFILLER_1_113 vssd1 vssd1 vccd1 vccd1 sky130_fd_sc_hd__decap_4
XFILLER_1_117 vssd1 vssd1 vccd1 vccd1 sky130_fd_sc_hd__fill_1
XFILLER_1_121 vssd1 vssd1 vccd1 vccd1 sky130_fd_sc_hd__decap_12
XFILLER_1_133 vssd1 vssd1 vccd1 vccd1 sky130_fd_sc_hd__decap_6
XFILLER_1_142 vssd1 vssd1 vccd1 vccd1 sky130_fd_sc_hd__decap_12
XFILLER_1_154 vssd1 vssd1 vccd1 vccd1 sky130_fd_sc_hd__decap_12
XFILLER_1_166 vssd1 vssd1 vccd1 vccd1 sky130_fd_sc_hd__fill_2
XFILLER_1_172 vssd1 vssd1 vccd1 vccd1 sky130_fd_sc_hd__decap_12
XFILLER_1_184 vssd1 vssd1 vccd1 vccd1 sky130_fd_sc_hd__decap_12
XFILLER_1_196 vssd1 vssd1 vccd1 vccd1 sky130_fd_sc_hd__decap_8
XFILLER_1_204 vssd1 vssd1 vccd1 vccd1 sky130_fd_sc_hd__fill_2
XFILLER_1_209 vssd1 vssd1 vccd1 vccd1 sky130_fd_sc_hd__decap_12
XFILLER_1_221 vssd1 vssd1 vccd1 vccd1 sky130_fd_sc_hd__decap_3
XFILLER_1_225 vssd1 vssd1 vccd1 vccd1 sky130_fd_sc_hd__fill_2
XFILLER_1_230 vssd1 vssd1 vccd1 vccd1 sky130_fd_sc_hd__decap_12
XFILLER_1_242 vssd1 vssd1 vccd1 vccd1 sky130_fd_sc_hd__decap_12
XFILLER_1_254 vssd1 vssd1 vccd1 vccd1 sky130_fd_sc_hd__decap_4
XFILLER_1_261 vssd1 vssd1 vccd1 vccd1 sky130_fd_sc_hd__decap_12
XFILLER_1_273 vssd1 vssd1 vccd1 vccd1 sky130_fd_sc_hd__decap_6
XFILLER_1_279 vssd1 vssd1 vccd1 vccd1 sky130_fd_sc_hd__fill_1
XFILLER_1_281 vssd1 vssd1 vccd1 vccd1 sky130_fd_sc_hd__decap_12
XFILLER_1_293 vssd1 vssd1 vccd1 vccd1 sky130_fd_sc_hd__decap_8
XFILLER_1_3 vssd1 vssd1 vccd1 vccd1 sky130_fd_sc_hd__decap_4
XFILLER_1_301 vssd1 vssd1 vccd1 vccd1 sky130_fd_sc_hd__decap_3
XFILLER_1_307 vssd1 vssd1 vccd1 vccd1 sky130_fd_sc_hd__decap_12
XFILLER_1_319 vssd1 vssd1 vccd1 vccd1 sky130_fd_sc_hd__decap_8
XFILLER_1_327 vssd1 vssd1 vccd1 vccd1 sky130_fd_sc_hd__fill_1
XFILLER_1_331 vssd1 vssd1 vccd1 vccd1 sky130_fd_sc_hd__decap_4
XFILLER_1_335 vssd1 vssd1 vccd1 vccd1 sky130_fd_sc_hd__fill_1
XFILLER_1_337 vssd1 vssd1 vccd1 vccd1 sky130_fd_sc_hd__decap_3
XFILLER_1_343 vssd1 vssd1 vccd1 vccd1 sky130_fd_sc_hd__decap_12
XFILLER_1_355 vssd1 vssd1 vccd1 vccd1 sky130_fd_sc_hd__decap_12
XFILLER_1_367 vssd1 vssd1 vccd1 vccd1 sky130_fd_sc_hd__decap_12
XFILLER_1_379 vssd1 vssd1 vccd1 vccd1 sky130_fd_sc_hd__decap_12
XFILLER_1_391 vssd1 vssd1 vccd1 vccd1 sky130_fd_sc_hd__fill_1
XFILLER_1_393 vssd1 vssd1 vccd1 vccd1 sky130_fd_sc_hd__decap_12
XFILLER_1_405 vssd1 vssd1 vccd1 vccd1 sky130_fd_sc_hd__decap_12
XFILLER_1_417 vssd1 vssd1 vccd1 vccd1 sky130_fd_sc_hd__decap_12
XFILLER_1_429 vssd1 vssd1 vccd1 vccd1 sky130_fd_sc_hd__decap_12
XFILLER_1_441 vssd1 vssd1 vccd1 vccd1 sky130_fd_sc_hd__decap_6
XFILLER_1_447 vssd1 vssd1 vccd1 vccd1 sky130_fd_sc_hd__fill_1
XFILLER_1_449 vssd1 vssd1 vccd1 vccd1 sky130_fd_sc_hd__decap_12
XFILLER_1_461 vssd1 vssd1 vccd1 vccd1 sky130_fd_sc_hd__decap_6
XFILLER_1_467 vssd1 vssd1 vccd1 vccd1 sky130_fd_sc_hd__fill_1
XFILLER_1_471 vssd1 vssd1 vccd1 vccd1 sky130_fd_sc_hd__decap_8
XFILLER_1_479 vssd1 vssd1 vccd1 vccd1 sky130_fd_sc_hd__fill_2
XFILLER_1_484 vssd1 vssd1 vccd1 vccd1 sky130_fd_sc_hd__decap_3
XFILLER_1_490 vssd1 vssd1 vccd1 vccd1 sky130_fd_sc_hd__decap_12
XFILLER_1_502 vssd1 vssd1 vccd1 vccd1 sky130_fd_sc_hd__fill_2
XFILLER_1_505 vssd1 vssd1 vccd1 vccd1 sky130_fd_sc_hd__decap_12
XFILLER_1_517 vssd1 vssd1 vccd1 vccd1 sky130_fd_sc_hd__decap_12
XFILLER_1_529 vssd1 vssd1 vccd1 vccd1 sky130_fd_sc_hd__decap_12
XFILLER_1_541 vssd1 vssd1 vccd1 vccd1 sky130_fd_sc_hd__decap_12
XFILLER_1_55 vssd1 vssd1 vccd1 vccd1 sky130_fd_sc_hd__fill_1
XFILLER_1_553 vssd1 vssd1 vccd1 vccd1 sky130_fd_sc_hd__fill_1
XFILLER_1_557 vssd1 vssd1 vccd1 vccd1 sky130_fd_sc_hd__decap_3
XFILLER_1_561 vssd1 vssd1 vccd1 vccd1 sky130_fd_sc_hd__decap_12
XFILLER_1_573 vssd1 vssd1 vccd1 vccd1 sky130_fd_sc_hd__decap_12
XFILLER_1_585 vssd1 vssd1 vccd1 vccd1 sky130_fd_sc_hd__decap_12
XFILLER_1_597 vssd1 vssd1 vccd1 vccd1 sky130_fd_sc_hd__decap_12
XFILLER_1_609 vssd1 vssd1 vccd1 vccd1 sky130_fd_sc_hd__decap_6
XFILLER_1_615 vssd1 vssd1 vccd1 vccd1 sky130_fd_sc_hd__fill_1
XFILLER_1_617 vssd1 vssd1 vccd1 vccd1 sky130_fd_sc_hd__decap_12
XFILLER_1_629 vssd1 vssd1 vccd1 vccd1 sky130_fd_sc_hd__decap_12
XFILLER_1_63 vssd1 vssd1 vccd1 vccd1 sky130_fd_sc_hd__fill_2
XFILLER_1_641 vssd1 vssd1 vccd1 vccd1 sky130_fd_sc_hd__decap_12
XFILLER_1_653 vssd1 vssd1 vccd1 vccd1 sky130_fd_sc_hd__decap_12
XFILLER_1_665 vssd1 vssd1 vccd1 vccd1 sky130_fd_sc_hd__decap_6
XFILLER_1_671 vssd1 vssd1 vccd1 vccd1 sky130_fd_sc_hd__fill_1
XFILLER_1_673 vssd1 vssd1 vccd1 vccd1 sky130_fd_sc_hd__decap_12
XFILLER_1_68 vssd1 vssd1 vccd1 vccd1 sky130_fd_sc_hd__decap_12
XFILLER_1_685 vssd1 vssd1 vccd1 vccd1 sky130_fd_sc_hd__decap_12
XFILLER_1_697 vssd1 vssd1 vccd1 vccd1 sky130_fd_sc_hd__decap_12
XFILLER_1_709 vssd1 vssd1 vccd1 vccd1 sky130_fd_sc_hd__decap_12
XFILLER_1_721 vssd1 vssd1 vccd1 vccd1 sky130_fd_sc_hd__decap_6
XFILLER_1_727 vssd1 vssd1 vccd1 vccd1 sky130_fd_sc_hd__fill_1
XFILLER_1_729 vssd1 vssd1 vccd1 vccd1 sky130_fd_sc_hd__fill_2
XFILLER_1_80 vssd1 vssd1 vccd1 vccd1 sky130_fd_sc_hd__decap_12
XFILLER_1_92 vssd1 vssd1 vccd1 vccd1 sky130_fd_sc_hd__fill_1
XFILLER_1_96 vssd1 vssd1 vccd1 vccd1 sky130_fd_sc_hd__decap_12
XFILLER_2_109 vssd1 vssd1 vccd1 vccd1 sky130_fd_sc_hd__decap_6
XFILLER_2_11 vssd1 vssd1 vccd1 vccd1 sky130_fd_sc_hd__fill_2
XFILLER_2_118 vssd1 vssd1 vccd1 vccd1 sky130_fd_sc_hd__decap_12
XFILLER_2_130 vssd1 vssd1 vccd1 vccd1 sky130_fd_sc_hd__decap_8
XFILLER_2_138 vssd1 vssd1 vccd1 vccd1 sky130_fd_sc_hd__fill_2
XFILLER_2_141 vssd1 vssd1 vccd1 vccd1 sky130_fd_sc_hd__decap_12
XFILLER_2_153 vssd1 vssd1 vccd1 vccd1 sky130_fd_sc_hd__decap_12
XFILLER_2_165 vssd1 vssd1 vccd1 vccd1 sky130_fd_sc_hd__decap_12
XFILLER_2_177 vssd1 vssd1 vccd1 vccd1 sky130_fd_sc_hd__decap_12
XFILLER_2_189 vssd1 vssd1 vccd1 vccd1 sky130_fd_sc_hd__decap_6
XFILLER_2_195 vssd1 vssd1 vccd1 vccd1 sky130_fd_sc_hd__fill_1
XFILLER_2_197 vssd1 vssd1 vccd1 vccd1 sky130_fd_sc_hd__decap_12
XFILLER_2_209 vssd1 vssd1 vccd1 vccd1 sky130_fd_sc_hd__decap_12
XFILLER_2_221 vssd1 vssd1 vccd1 vccd1 sky130_fd_sc_hd__decap_12
XFILLER_2_233 vssd1 vssd1 vccd1 vccd1 sky130_fd_sc_hd__decap_12
XFILLER_2_245 vssd1 vssd1 vccd1 vccd1 sky130_fd_sc_hd__decap_6
XFILLER_2_251 vssd1 vssd1 vccd1 vccd1 sky130_fd_sc_hd__fill_1
XFILLER_2_253 vssd1 vssd1 vccd1 vccd1 sky130_fd_sc_hd__decap_12
XFILLER_2_265 vssd1 vssd1 vccd1 vccd1 sky130_fd_sc_hd__decap_12
XFILLER_2_277 vssd1 vssd1 vccd1 vccd1 sky130_fd_sc_hd__decap_12
XFILLER_2_289 vssd1 vssd1 vccd1 vccd1 sky130_fd_sc_hd__decap_8
XFILLER_2_29 vssd1 vssd1 vccd1 vccd1 sky130_fd_sc_hd__fill_2
XFILLER_2_297 vssd1 vssd1 vccd1 vccd1 sky130_fd_sc_hd__fill_2
XFILLER_2_3 vssd1 vssd1 vccd1 vccd1 sky130_fd_sc_hd__decap_8
XFILLER_2_302 vssd1 vssd1 vccd1 vccd1 sky130_fd_sc_hd__decap_6
XFILLER_2_309 vssd1 vssd1 vccd1 vccd1 sky130_fd_sc_hd__decap_12
XFILLER_2_321 vssd1 vssd1 vccd1 vccd1 sky130_fd_sc_hd__decap_12
XFILLER_2_333 vssd1 vssd1 vccd1 vccd1 sky130_fd_sc_hd__decap_12
XFILLER_2_345 vssd1 vssd1 vccd1 vccd1 sky130_fd_sc_hd__decap_12
XFILLER_2_357 vssd1 vssd1 vccd1 vccd1 sky130_fd_sc_hd__decap_6
XFILLER_2_363 vssd1 vssd1 vccd1 vccd1 sky130_fd_sc_hd__fill_1
XFILLER_2_365 vssd1 vssd1 vccd1 vccd1 sky130_fd_sc_hd__decap_12
XFILLER_2_377 vssd1 vssd1 vccd1 vccd1 sky130_fd_sc_hd__decap_6
XFILLER_2_386 vssd1 vssd1 vccd1 vccd1 sky130_fd_sc_hd__decap_12
XFILLER_2_398 vssd1 vssd1 vccd1 vccd1 sky130_fd_sc_hd__decap_12
XFILLER_2_410 vssd1 vssd1 vccd1 vccd1 sky130_fd_sc_hd__decap_8
XFILLER_2_418 vssd1 vssd1 vccd1 vccd1 sky130_fd_sc_hd__fill_2
XFILLER_2_421 vssd1 vssd1 vccd1 vccd1 sky130_fd_sc_hd__decap_12
XFILLER_2_433 vssd1 vssd1 vccd1 vccd1 sky130_fd_sc_hd__decap_6
XFILLER_2_442 vssd1 vssd1 vccd1 vccd1 sky130_fd_sc_hd__decap_12
XFILLER_2_454 vssd1 vssd1 vccd1 vccd1 sky130_fd_sc_hd__decap_12
XFILLER_2_466 vssd1 vssd1 vccd1 vccd1 sky130_fd_sc_hd__fill_1
XFILLER_2_470 vssd1 vssd1 vccd1 vccd1 sky130_fd_sc_hd__decap_6
XFILLER_2_477 vssd1 vssd1 vccd1 vccd1 sky130_fd_sc_hd__fill_1
XFILLER_2_502 vssd1 vssd1 vccd1 vccd1 sky130_fd_sc_hd__decap_6
XFILLER_2_514 vssd1 vssd1 vccd1 vccd1 sky130_fd_sc_hd__decap_12
XFILLER_2_52 vssd1 vssd1 vccd1 vccd1 sky130_fd_sc_hd__fill_2
XFILLER_2_526 vssd1 vssd1 vccd1 vccd1 sky130_fd_sc_hd__decap_6
XFILLER_2_533 vssd1 vssd1 vccd1 vccd1 sky130_fd_sc_hd__decap_12
XFILLER_2_545 vssd1 vssd1 vccd1 vccd1 sky130_fd_sc_hd__decap_12
XFILLER_2_557 vssd1 vssd1 vccd1 vccd1 sky130_fd_sc_hd__decap_12
XFILLER_2_569 vssd1 vssd1 vccd1 vccd1 sky130_fd_sc_hd__decap_12
XFILLER_2_581 vssd1 vssd1 vccd1 vccd1 sky130_fd_sc_hd__decap_6
XFILLER_2_587 vssd1 vssd1 vccd1 vccd1 sky130_fd_sc_hd__fill_1
XFILLER_2_589 vssd1 vssd1 vccd1 vccd1 sky130_fd_sc_hd__decap_12
XFILLER_2_60 vssd1 vssd1 vccd1 vccd1 sky130_fd_sc_hd__decap_12
XFILLER_2_601 vssd1 vssd1 vccd1 vccd1 sky130_fd_sc_hd__decap_12
XFILLER_2_613 vssd1 vssd1 vccd1 vccd1 sky130_fd_sc_hd__decap_12
XFILLER_2_625 vssd1 vssd1 vccd1 vccd1 sky130_fd_sc_hd__decap_12
XFILLER_2_637 vssd1 vssd1 vccd1 vccd1 sky130_fd_sc_hd__decap_6
XFILLER_2_643 vssd1 vssd1 vccd1 vccd1 sky130_fd_sc_hd__fill_1
XFILLER_2_645 vssd1 vssd1 vccd1 vccd1 sky130_fd_sc_hd__decap_12
XFILLER_2_657 vssd1 vssd1 vccd1 vccd1 sky130_fd_sc_hd__decap_12
XFILLER_2_669 vssd1 vssd1 vccd1 vccd1 sky130_fd_sc_hd__decap_12
XFILLER_2_681 vssd1 vssd1 vccd1 vccd1 sky130_fd_sc_hd__decap_8
XFILLER_2_689 vssd1 vssd1 vccd1 vccd1 sky130_fd_sc_hd__decap_3
XFILLER_2_695 vssd1 vssd1 vccd1 vccd1 sky130_fd_sc_hd__fill_2
XFILLER_2_710 vssd1 vssd1 vccd1 vccd1 sky130_fd_sc_hd__decap_12
XFILLER_2_72 vssd1 vssd1 vccd1 vccd1 sky130_fd_sc_hd__decap_12
XFILLER_2_722 vssd1 vssd1 vccd1 vccd1 sky130_fd_sc_hd__decap_8
XFILLER_2_730 vssd1 vssd1 vccd1 vccd1 sky130_fd_sc_hd__fill_1
XFILLER_2_85 vssd1 vssd1 vccd1 vccd1 sky130_fd_sc_hd__decap_12
XFILLER_2_97 vssd1 vssd1 vccd1 vccd1 sky130_fd_sc_hd__decap_12
XFILLER_3_116 vssd1 vssd1 vccd1 vccd1 sky130_fd_sc_hd__fill_2
XFILLER_3_139 vssd1 vssd1 vccd1 vccd1 sky130_fd_sc_hd__fill_1
XFILLER_3_141 vssd1 vssd1 vccd1 vccd1 sky130_fd_sc_hd__fill_1
XFILLER_3_166 vssd1 vssd1 vccd1 vccd1 sky130_fd_sc_hd__fill_2
XFILLER_3_29 vssd1 vssd1 vccd1 vccd1 sky130_fd_sc_hd__fill_2
XFILLER_3_3 vssd1 vssd1 vccd1 vccd1 sky130_fd_sc_hd__decap_6
XFILLER_3_40 vssd1 vssd1 vccd1 vccd1 sky130_fd_sc_hd__fill_1
XFILLER_3_486 vssd1 vssd1 vccd1 vccd1 sky130_fd_sc_hd__decap_12
XFILLER_3_498 vssd1 vssd1 vccd1 vccd1 sky130_fd_sc_hd__decap_6
XFILLER_3_50 vssd1 vssd1 vccd1 vccd1 sky130_fd_sc_hd__fill_1
XFILLER_3_511 vssd1 vssd1 vccd1 vccd1 sky130_fd_sc_hd__decap_4
XFILLER_3_530 vssd1 vssd1 vccd1 vccd1 sky130_fd_sc_hd__fill_2
XFILLER_3_54 vssd1 vssd1 vccd1 vccd1 sky130_fd_sc_hd__fill_2
XFILLER_3_722 vssd1 vssd1 vccd1 vccd1 sky130_fd_sc_hd__decap_6
XFILLER_3_729 vssd1 vssd1 vccd1 vccd1 sky130_fd_sc_hd__fill_2
XFILLER_3_9 vssd1 vssd1 vccd1 vccd1 sky130_fd_sc_hd__fill_1
XPHY_0 vssd1 vssd1 vccd1 vccd1 sky130_fd_sc_hd__decap_3
XPHY_1 vssd1 vssd1 vccd1 vccd1 sky130_fd_sc_hd__decap_3
XPHY_2 vssd1 vssd1 vccd1 vccd1 sky130_fd_sc_hd__decap_3
XPHY_3 vssd1 vssd1 vccd1 vccd1 sky130_fd_sc_hd__decap_3
XPHY_4 vssd1 vssd1 vccd1 vccd1 sky130_fd_sc_hd__decap_3
XPHY_5 vssd1 vssd1 vccd1 vccd1 sky130_fd_sc_hd__decap_3
XPHY_6 vssd1 vssd1 vccd1 vccd1 sky130_fd_sc_hd__decap_3
XPHY_7 vssd1 vssd1 vccd1 vccd1 sky130_fd_sc_hd__decap_3
XTAP_10 vssd1 vccd1 sky130_fd_sc_hd__tapvpwrvgnd_1
XTAP_11 vssd1 vccd1 sky130_fd_sc_hd__tapvpwrvgnd_1
XTAP_12 vssd1 vccd1 sky130_fd_sc_hd__tapvpwrvgnd_1
XTAP_13 vssd1 vccd1 sky130_fd_sc_hd__tapvpwrvgnd_1
XTAP_14 vssd1 vccd1 sky130_fd_sc_hd__tapvpwrvgnd_1
XTAP_15 vssd1 vccd1 sky130_fd_sc_hd__tapvpwrvgnd_1
XTAP_16 vssd1 vccd1 sky130_fd_sc_hd__tapvpwrvgnd_1
XTAP_17 vssd1 vccd1 sky130_fd_sc_hd__tapvpwrvgnd_1
XTAP_18 vssd1 vccd1 sky130_fd_sc_hd__tapvpwrvgnd_1
XTAP_19 vssd1 vccd1 sky130_fd_sc_hd__tapvpwrvgnd_1
XTAP_20 vssd1 vccd1 sky130_fd_sc_hd__tapvpwrvgnd_1
XTAP_21 vssd1 vccd1 sky130_fd_sc_hd__tapvpwrvgnd_1
XTAP_22 vssd1 vccd1 sky130_fd_sc_hd__tapvpwrvgnd_1
XTAP_23 vssd1 vccd1 sky130_fd_sc_hd__tapvpwrvgnd_1
XTAP_24 vssd1 vccd1 sky130_fd_sc_hd__tapvpwrvgnd_1
XTAP_25 vssd1 vccd1 sky130_fd_sc_hd__tapvpwrvgnd_1
XTAP_26 vssd1 vccd1 sky130_fd_sc_hd__tapvpwrvgnd_1
XTAP_27 vssd1 vccd1 sky130_fd_sc_hd__tapvpwrvgnd_1
XTAP_28 vssd1 vccd1 sky130_fd_sc_hd__tapvpwrvgnd_1
XTAP_29 vssd1 vccd1 sky130_fd_sc_hd__tapvpwrvgnd_1
XTAP_30 vssd1 vccd1 sky130_fd_sc_hd__tapvpwrvgnd_1
XTAP_31 vssd1 vccd1 sky130_fd_sc_hd__tapvpwrvgnd_1
XTAP_32 vssd1 vccd1 sky130_fd_sc_hd__tapvpwrvgnd_1
XTAP_33 vssd1 vccd1 sky130_fd_sc_hd__tapvpwrvgnd_1
XTAP_34 vssd1 vccd1 sky130_fd_sc_hd__tapvpwrvgnd_1
XTAP_35 vssd1 vccd1 sky130_fd_sc_hd__tapvpwrvgnd_1
XTAP_36 vssd1 vccd1 sky130_fd_sc_hd__tapvpwrvgnd_1
XTAP_37 vssd1 vccd1 sky130_fd_sc_hd__tapvpwrvgnd_1
XTAP_38 vssd1 vccd1 sky130_fd_sc_hd__tapvpwrvgnd_1
XTAP_39 vssd1 vccd1 sky130_fd_sc_hd__tapvpwrvgnd_1
XTAP_40 vssd1 vccd1 sky130_fd_sc_hd__tapvpwrvgnd_1
XTAP_41 vssd1 vccd1 sky130_fd_sc_hd__tapvpwrvgnd_1
XTAP_42 vssd1 vccd1 sky130_fd_sc_hd__tapvpwrvgnd_1
XTAP_43 vssd1 vccd1 sky130_fd_sc_hd__tapvpwrvgnd_1
XTAP_44 vssd1 vccd1 sky130_fd_sc_hd__tapvpwrvgnd_1
XTAP_45 vssd1 vccd1 sky130_fd_sc_hd__tapvpwrvgnd_1
XTAP_46 vssd1 vccd1 sky130_fd_sc_hd__tapvpwrvgnd_1
XTAP_47 vssd1 vccd1 sky130_fd_sc_hd__tapvpwrvgnd_1
XTAP_48 vssd1 vccd1 sky130_fd_sc_hd__tapvpwrvgnd_1
XTAP_49 vssd1 vccd1 sky130_fd_sc_hd__tapvpwrvgnd_1
XTAP_50 vssd1 vccd1 sky130_fd_sc_hd__tapvpwrvgnd_1
XTAP_51 vssd1 vccd1 sky130_fd_sc_hd__tapvpwrvgnd_1
XTAP_52 vssd1 vccd1 sky130_fd_sc_hd__tapvpwrvgnd_1
XTAP_53 vssd1 vccd1 sky130_fd_sc_hd__tapvpwrvgnd_1
XTAP_54 vssd1 vccd1 sky130_fd_sc_hd__tapvpwrvgnd_1
XTAP_55 vssd1 vccd1 sky130_fd_sc_hd__tapvpwrvgnd_1
XTAP_56 vssd1 vccd1 sky130_fd_sc_hd__tapvpwrvgnd_1
XTAP_57 vssd1 vccd1 sky130_fd_sc_hd__tapvpwrvgnd_1
XTAP_58 vssd1 vccd1 sky130_fd_sc_hd__tapvpwrvgnd_1
XTAP_59 vssd1 vccd1 sky130_fd_sc_hd__tapvpwrvgnd_1
XTAP_60 vssd1 vccd1 sky130_fd_sc_hd__tapvpwrvgnd_1
XTAP_61 vssd1 vccd1 sky130_fd_sc_hd__tapvpwrvgnd_1
XTAP_62 vssd1 vccd1 sky130_fd_sc_hd__tapvpwrvgnd_1
XTAP_63 vssd1 vccd1 sky130_fd_sc_hd__tapvpwrvgnd_1
XTAP_64 vssd1 vccd1 sky130_fd_sc_hd__tapvpwrvgnd_1
XTAP_65 vssd1 vccd1 sky130_fd_sc_hd__tapvpwrvgnd_1
XTAP_66 vssd1 vccd1 sky130_fd_sc_hd__tapvpwrvgnd_1
XTAP_67 vssd1 vccd1 sky130_fd_sc_hd__tapvpwrvgnd_1
XTAP_68 vssd1 vccd1 sky130_fd_sc_hd__tapvpwrvgnd_1
XTAP_69 vssd1 vccd1 sky130_fd_sc_hd__tapvpwrvgnd_1
XTAP_70 vssd1 vccd1 sky130_fd_sc_hd__tapvpwrvgnd_1
XTAP_71 vssd1 vccd1 sky130_fd_sc_hd__tapvpwrvgnd_1
XTAP_72 vssd1 vccd1 sky130_fd_sc_hd__tapvpwrvgnd_1
XTAP_73 vssd1 vccd1 sky130_fd_sc_hd__tapvpwrvgnd_1
XTAP_74 vssd1 vccd1 sky130_fd_sc_hd__tapvpwrvgnd_1
XTAP_75 vssd1 vccd1 sky130_fd_sc_hd__tapvpwrvgnd_1
XTAP_76 vssd1 vccd1 sky130_fd_sc_hd__tapvpwrvgnd_1
XTAP_77 vssd1 vccd1 sky130_fd_sc_hd__tapvpwrvgnd_1
XTAP_78 vssd1 vccd1 sky130_fd_sc_hd__tapvpwrvgnd_1
XTAP_79 vssd1 vccd1 sky130_fd_sc_hd__tapvpwrvgnd_1
XTAP_8 vssd1 vccd1 sky130_fd_sc_hd__tapvpwrvgnd_1
XTAP_80 vssd1 vccd1 sky130_fd_sc_hd__tapvpwrvgnd_1
XTAP_81 vssd1 vccd1 sky130_fd_sc_hd__tapvpwrvgnd_1
XTAP_82 vssd1 vccd1 sky130_fd_sc_hd__tapvpwrvgnd_1
XTAP_83 vssd1 vccd1 sky130_fd_sc_hd__tapvpwrvgnd_1
XTAP_84 vssd1 vccd1 sky130_fd_sc_hd__tapvpwrvgnd_1
XTAP_85 vssd1 vccd1 sky130_fd_sc_hd__tapvpwrvgnd_1
XTAP_9 vssd1 vccd1 sky130_fd_sc_hd__tapvpwrvgnd_1
X\insts[0]  vssd1 vssd1 vccd1 vccd1 HI[0] NC sky130_fd_sc_hd__conb_1
X\insts[100]  vssd1 vssd1 vccd1 vccd1 HI[100] NC sky130_fd_sc_hd__conb_1
X\insts[101]  vssd1 vssd1 vccd1 vccd1 HI[101] NC sky130_fd_sc_hd__conb_1
X\insts[102]  vssd1 vssd1 vccd1 vccd1 HI[102] NC sky130_fd_sc_hd__conb_1
X\insts[103]  vssd1 vssd1 vccd1 vccd1 HI[103] NC sky130_fd_sc_hd__conb_1
X\insts[104]  vssd1 vssd1 vccd1 vccd1 HI[104] NC sky130_fd_sc_hd__conb_1
X\insts[105]  vssd1 vssd1 vccd1 vccd1 HI[105] NC sky130_fd_sc_hd__conb_1
X\insts[106]  vssd1 vssd1 vccd1 vccd1 HI[106] NC sky130_fd_sc_hd__conb_1
X\insts[107]  vssd1 vssd1 vccd1 vccd1 HI[107] NC sky130_fd_sc_hd__conb_1
X\insts[108]  vssd1 vssd1 vccd1 vccd1 HI[108] NC sky130_fd_sc_hd__conb_1
X\insts[109]  vssd1 vssd1 vccd1 vccd1 HI[109] NC sky130_fd_sc_hd__conb_1
X\insts[10]  vssd1 vssd1 vccd1 vccd1 HI[10] NC sky130_fd_sc_hd__conb_1
X\insts[110]  vssd1 vssd1 vccd1 vccd1 HI[110] NC sky130_fd_sc_hd__conb_1
X\insts[111]  vssd1 vssd1 vccd1 vccd1 HI[111] NC sky130_fd_sc_hd__conb_1
X\insts[112]  vssd1 vssd1 vccd1 vccd1 HI[112] NC sky130_fd_sc_hd__conb_1
X\insts[113]  vssd1 vssd1 vccd1 vccd1 HI[113] NC sky130_fd_sc_hd__conb_1
X\insts[114]  vssd1 vssd1 vccd1 vccd1 HI[114] NC sky130_fd_sc_hd__conb_1
X\insts[115]  vssd1 vssd1 vccd1 vccd1 HI[115] NC sky130_fd_sc_hd__conb_1
X\insts[116]  vssd1 vssd1 vccd1 vccd1 HI[116] NC sky130_fd_sc_hd__conb_1
X\insts[117]  vssd1 vssd1 vccd1 vccd1 HI[117] NC sky130_fd_sc_hd__conb_1
X\insts[118]  vssd1 vssd1 vccd1 vccd1 HI[118] NC sky130_fd_sc_hd__conb_1
X\insts[119]  vssd1 vssd1 vccd1 vccd1 HI[119] NC sky130_fd_sc_hd__conb_1
X\insts[11]  vssd1 vssd1 vccd1 vccd1 HI[11] NC sky130_fd_sc_hd__conb_1
X\insts[120]  vssd1 vssd1 vccd1 vccd1 HI[120] NC sky130_fd_sc_hd__conb_1
X\insts[121]  vssd1 vssd1 vccd1 vccd1 HI[121] NC sky130_fd_sc_hd__conb_1
X\insts[122]  vssd1 vssd1 vccd1 vccd1 HI[122] NC sky130_fd_sc_hd__conb_1
X\insts[123]  vssd1 vssd1 vccd1 vccd1 HI[123] NC sky130_fd_sc_hd__conb_1
X\insts[124]  vssd1 vssd1 vccd1 vccd1 HI[124] NC sky130_fd_sc_hd__conb_1
X\insts[125]  vssd1 vssd1 vccd1 vccd1 HI[125] NC sky130_fd_sc_hd__conb_1
X\insts[126]  vssd1 vssd1 vccd1 vccd1 HI[126] NC sky130_fd_sc_hd__conb_1
X\insts[127]  vssd1 vssd1 vccd1 vccd1 HI[127] NC sky130_fd_sc_hd__conb_1
X\insts[128]  vssd1 vssd1 vccd1 vccd1 HI[128] NC sky130_fd_sc_hd__conb_1
X\insts[129]  vssd1 vssd1 vccd1 vccd1 HI[129] NC sky130_fd_sc_hd__conb_1
X\insts[12]  vssd1 vssd1 vccd1 vccd1 HI[12] NC sky130_fd_sc_hd__conb_1
X\insts[130]  vssd1 vssd1 vccd1 vccd1 HI[130] NC sky130_fd_sc_hd__conb_1
X\insts[131]  vssd1 vssd1 vccd1 vccd1 HI[131] NC sky130_fd_sc_hd__conb_1
X\insts[132]  vssd1 vssd1 vccd1 vccd1 HI[132] NC sky130_fd_sc_hd__conb_1
X\insts[133]  vssd1 vssd1 vccd1 vccd1 HI[133] NC sky130_fd_sc_hd__conb_1
X\insts[134]  vssd1 vssd1 vccd1 vccd1 HI[134] NC sky130_fd_sc_hd__conb_1
X\insts[135]  vssd1 vssd1 vccd1 vccd1 HI[135] NC sky130_fd_sc_hd__conb_1
X\insts[136]  vssd1 vssd1 vccd1 vccd1 HI[136] NC sky130_fd_sc_hd__conb_1
X\insts[137]  vssd1 vssd1 vccd1 vccd1 HI[137] NC sky130_fd_sc_hd__conb_1
X\insts[138]  vssd1 vssd1 vccd1 vccd1 HI[138] NC sky130_fd_sc_hd__conb_1
X\insts[139]  vssd1 vssd1 vccd1 vccd1 HI[139] NC sky130_fd_sc_hd__conb_1
X\insts[13]  vssd1 vssd1 vccd1 vccd1 HI[13] NC sky130_fd_sc_hd__conb_1
X\insts[140]  vssd1 vssd1 vccd1 vccd1 HI[140] NC sky130_fd_sc_hd__conb_1
X\insts[141]  vssd1 vssd1 vccd1 vccd1 HI[141] NC sky130_fd_sc_hd__conb_1
X\insts[142]  vssd1 vssd1 vccd1 vccd1 HI[142] NC sky130_fd_sc_hd__conb_1
X\insts[143]  vssd1 vssd1 vccd1 vccd1 HI[143] NC sky130_fd_sc_hd__conb_1
X\insts[144]  vssd1 vssd1 vccd1 vccd1 HI[144] NC sky130_fd_sc_hd__conb_1
X\insts[145]  vssd1 vssd1 vccd1 vccd1 HI[145] NC sky130_fd_sc_hd__conb_1
X\insts[146]  vssd1 vssd1 vccd1 vccd1 HI[146] NC sky130_fd_sc_hd__conb_1
X\insts[147]  vssd1 vssd1 vccd1 vccd1 HI[147] NC sky130_fd_sc_hd__conb_1
X\insts[148]  vssd1 vssd1 vccd1 vccd1 HI[148] NC sky130_fd_sc_hd__conb_1
X\insts[149]  vssd1 vssd1 vccd1 vccd1 HI[149] NC sky130_fd_sc_hd__conb_1
X\insts[14]  vssd1 vssd1 vccd1 vccd1 HI[14] NC sky130_fd_sc_hd__conb_1
X\insts[150]  vssd1 vssd1 vccd1 vccd1 HI[150] NC sky130_fd_sc_hd__conb_1
X\insts[151]  vssd1 vssd1 vccd1 vccd1 HI[151] NC sky130_fd_sc_hd__conb_1
X\insts[152]  vssd1 vssd1 vccd1 vccd1 HI[152] NC sky130_fd_sc_hd__conb_1
X\insts[153]  vssd1 vssd1 vccd1 vccd1 HI[153] NC sky130_fd_sc_hd__conb_1
X\insts[154]  vssd1 vssd1 vccd1 vccd1 HI[154] NC sky130_fd_sc_hd__conb_1
X\insts[155]  vssd1 vssd1 vccd1 vccd1 HI[155] NC sky130_fd_sc_hd__conb_1
X\insts[156]  vssd1 vssd1 vccd1 vccd1 HI[156] NC sky130_fd_sc_hd__conb_1
X\insts[157]  vssd1 vssd1 vccd1 vccd1 HI[157] NC sky130_fd_sc_hd__conb_1
X\insts[158]  vssd1 vssd1 vccd1 vccd1 HI[158] NC sky130_fd_sc_hd__conb_1
X\insts[159]  vssd1 vssd1 vccd1 vccd1 HI[159] NC sky130_fd_sc_hd__conb_1
X\insts[15]  vssd1 vssd1 vccd1 vccd1 HI[15] NC sky130_fd_sc_hd__conb_1
X\insts[160]  vssd1 vssd1 vccd1 vccd1 HI[160] NC sky130_fd_sc_hd__conb_1
X\insts[161]  vssd1 vssd1 vccd1 vccd1 HI[161] NC sky130_fd_sc_hd__conb_1
X\insts[162]  vssd1 vssd1 vccd1 vccd1 HI[162] NC sky130_fd_sc_hd__conb_1
X\insts[163]  vssd1 vssd1 vccd1 vccd1 HI[163] NC sky130_fd_sc_hd__conb_1
X\insts[164]  vssd1 vssd1 vccd1 vccd1 HI[164] NC sky130_fd_sc_hd__conb_1
X\insts[165]  vssd1 vssd1 vccd1 vccd1 HI[165] NC sky130_fd_sc_hd__conb_1
X\insts[166]  vssd1 vssd1 vccd1 vccd1 HI[166] NC sky130_fd_sc_hd__conb_1
X\insts[167]  vssd1 vssd1 vccd1 vccd1 HI[167] NC sky130_fd_sc_hd__conb_1
X\insts[168]  vssd1 vssd1 vccd1 vccd1 HI[168] NC sky130_fd_sc_hd__conb_1
X\insts[169]  vssd1 vssd1 vccd1 vccd1 HI[169] NC sky130_fd_sc_hd__conb_1
X\insts[16]  vssd1 vssd1 vccd1 vccd1 HI[16] NC sky130_fd_sc_hd__conb_1
X\insts[170]  vssd1 vssd1 vccd1 vccd1 HI[170] NC sky130_fd_sc_hd__conb_1
X\insts[171]  vssd1 vssd1 vccd1 vccd1 HI[171] NC sky130_fd_sc_hd__conb_1
X\insts[172]  vssd1 vssd1 vccd1 vccd1 HI[172] NC sky130_fd_sc_hd__conb_1
X\insts[173]  vssd1 vssd1 vccd1 vccd1 HI[173] NC sky130_fd_sc_hd__conb_1
X\insts[174]  vssd1 vssd1 vccd1 vccd1 HI[174] NC sky130_fd_sc_hd__conb_1
X\insts[175]  vssd1 vssd1 vccd1 vccd1 HI[175] NC sky130_fd_sc_hd__conb_1
X\insts[176]  vssd1 vssd1 vccd1 vccd1 HI[176] NC sky130_fd_sc_hd__conb_1
X\insts[177]  vssd1 vssd1 vccd1 vccd1 HI[177] NC sky130_fd_sc_hd__conb_1
X\insts[178]  vssd1 vssd1 vccd1 vccd1 HI[178] NC sky130_fd_sc_hd__conb_1
X\insts[179]  vssd1 vssd1 vccd1 vccd1 HI[179] NC sky130_fd_sc_hd__conb_1
X\insts[17]  vssd1 vssd1 vccd1 vccd1 HI[17] NC sky130_fd_sc_hd__conb_1
X\insts[180]  vssd1 vssd1 vccd1 vccd1 HI[180] NC sky130_fd_sc_hd__conb_1
X\insts[181]  vssd1 vssd1 vccd1 vccd1 HI[181] NC sky130_fd_sc_hd__conb_1
X\insts[182]  vssd1 vssd1 vccd1 vccd1 HI[182] NC sky130_fd_sc_hd__conb_1
X\insts[183]  vssd1 vssd1 vccd1 vccd1 HI[183] NC sky130_fd_sc_hd__conb_1
X\insts[184]  vssd1 vssd1 vccd1 vccd1 HI[184] NC sky130_fd_sc_hd__conb_1
X\insts[185]  vssd1 vssd1 vccd1 vccd1 HI[185] NC sky130_fd_sc_hd__conb_1
X\insts[186]  vssd1 vssd1 vccd1 vccd1 HI[186] NC sky130_fd_sc_hd__conb_1
X\insts[187]  vssd1 vssd1 vccd1 vccd1 HI[187] NC sky130_fd_sc_hd__conb_1
X\insts[188]  vssd1 vssd1 vccd1 vccd1 HI[188] NC sky130_fd_sc_hd__conb_1
X\insts[189]  vssd1 vssd1 vccd1 vccd1 HI[189] NC sky130_fd_sc_hd__conb_1
X\insts[18]  vssd1 vssd1 vccd1 vccd1 HI[18] NC sky130_fd_sc_hd__conb_1
X\insts[190]  vssd1 vssd1 vccd1 vccd1 HI[190] NC sky130_fd_sc_hd__conb_1
X\insts[191]  vssd1 vssd1 vccd1 vccd1 HI[191] NC sky130_fd_sc_hd__conb_1
X\insts[192]  vssd1 vssd1 vccd1 vccd1 HI[192] NC sky130_fd_sc_hd__conb_1
X\insts[193]  vssd1 vssd1 vccd1 vccd1 HI[193] NC sky130_fd_sc_hd__conb_1
X\insts[194]  vssd1 vssd1 vccd1 vccd1 HI[194] NC sky130_fd_sc_hd__conb_1
X\insts[195]  vssd1 vssd1 vccd1 vccd1 HI[195] NC sky130_fd_sc_hd__conb_1
X\insts[196]  vssd1 vssd1 vccd1 vccd1 HI[196] NC sky130_fd_sc_hd__conb_1
X\insts[197]  vssd1 vssd1 vccd1 vccd1 HI[197] NC sky130_fd_sc_hd__conb_1
X\insts[198]  vssd1 vssd1 vccd1 vccd1 HI[198] NC sky130_fd_sc_hd__conb_1
X\insts[199]  vssd1 vssd1 vccd1 vccd1 HI[199] NC sky130_fd_sc_hd__conb_1
X\insts[19]  vssd1 vssd1 vccd1 vccd1 HI[19] NC sky130_fd_sc_hd__conb_1
X\insts[1]  vssd1 vssd1 vccd1 vccd1 HI[1] NC sky130_fd_sc_hd__conb_1